** Layout Netlist, pvs precompare
** 

.subckt emir_test_1 gnda vdda 
RX0/R0 gnda vdda RPP1K1 L=2.5e-05 W=5e-06 m=1 
RX1/R0 gnda vdda RPP1K1 L=2.5e-05 W=5e-06 m=1 
RX2/R0 gnda vdda RPP1K1 L=2.5e-05 W=5e-06 m=1 
.ends


