** Layout Netlist, pvs precompare
** 

.subckt LDDN D G S B 
.ends


.subckt LDDP D G S B 
.ends


.subckt hvswitch8 CUR_IN DOWN GNDD GNDHV OUT UP VDD3 VDDHV VSUBHV 
X0/X104/X0 OUT 2 CUR_IN VSUBHV LDDN w=5e-05 l=1.25e-06 m=1 $[LDDN] 
X0/X104/X1 OUT 2 CUR_IN VSUBHV LDDN w=5e-05 l=1.25e-06 m=1 $[LDDN] 
X0/X104/X2 OUT 2 CUR_IN VSUBHV LDDN w=5e-05 l=1.25e-06 m=1 $[LDDN] 
X0/X104/X3 OUT 2 CUR_IN VSUBHV LDDN w=5e-05 l=1.25e-06 m=1 $[LDDN] 
X0/X104/X4 OUT 2 CUR_IN VSUBHV LDDN w=5e-05 l=1.25e-06 m=1 $[LDDN] 
X0/X104/X5 OUT 2 CUR_IN VSUBHV LDDN w=5e-05 l=1.25e-06 m=1 $[LDDN] 
X0/X104/X6 OUT 2 CUR_IN VSUBHV LDDN w=5e-05 l=1.25e-06 m=1 $[LDDN] 
X0/X104/X7 OUT 2 CUR_IN VSUBHV LDDN w=5e-05 l=1.25e-06 m=1 $[LDDN] 
X0/X104/X8 OUT 2 CUR_IN VSUBHV LDDN w=5e-05 l=1.25e-06 m=1 $[LDDN] 
X0/X104/X9 OUT 2 CUR_IN VSUBHV LDDN w=5e-05 l=1.25e-06 m=1 $[LDDN] 
X0/X104/X10 OUT 2 CUR_IN VSUBHV LDDN w=5e-05 l=1.25e-06 m=1 $[LDDN] 
X0/X104/X11 OUT 2 CUR_IN VSUBHV LDDN w=5e-05 l=1.25e-06 m=1 $[LDDN] 
CX1/C0 GNDHV 2 CSF4A area=6.3936e-11 perimeter=3.372e-05 m=1 
CX1/C1 GNDHV 2 CSF4A area=6.3936e-11 perimeter=3.372e-05 m=1 
CX1/C2 GNDHV 2 CSF4A area=6.3936e-11 perimeter=3.372e-05 m=1 
CX1/C3 GNDHV 2 CSF4A area=6.3936e-11 perimeter=3.372e-05 m=1 
CX1/C4 GNDHV 2 CSF4A area=6.3936e-11 perimeter=3.372e-05 m=1 
CX1/C5 GNDHV 2 CSF4A area=6.3936e-11 perimeter=3.372e-05 m=1 
CX1/C6 GNDHV 2 CSF4A area=6.3936e-11 perimeter=3.372e-05 m=1 
CX1/C7 GNDHV 2 CSF4A area=6.3936e-11 perimeter=3.372e-05 m=1 
CX1/C8 GNDHV 2 CSF4A area=6.3936e-11 perimeter=3.372e-05 m=1 
CX1/C9 GNDHV 2 CSF4A area=6.3936e-11 perimeter=3.372e-05 m=1 
CX1/C10 VDDHV OUT CSF4A area=6.3936e-11 perimeter=3.372e-05 m=1 
CX1/C11 VDDHV OUT CSF4A area=6.3936e-11 perimeter=3.372e-05 m=1 
CX1/C12 VDDHV OUT CSF4A area=6.3936e-11 perimeter=3.372e-05 m=1 
CX1/C13 VDDHV OUT CSF4A area=6.3936e-11 perimeter=3.372e-05 m=1 
CX1/C14 GNDHV 2 CSF4A area=6.3936e-11 perimeter=3.372e-05 m=1 
CX1/C15 GNDHV 2 CSF4A area=6.3936e-11 perimeter=3.372e-05 m=1 
CX1/C16 GNDHV 2 CSF4A area=6.3936e-11 perimeter=3.372e-05 m=1 
CX1/C17 GNDHV 2 CSF4A area=6.3936e-11 perimeter=3.372e-05 m=1 
CX1/C18 GNDHV 2 CSF4A area=6.3936e-11 perimeter=3.372e-05 m=1 
CX1/C19 GNDHV 2 CSF4A area=6.3936e-11 perimeter=3.372e-05 m=1 
CX1/C20 GNDHV 2 CSF4A area=6.3936e-11 perimeter=3.372e-05 m=1 
CX1/C21 GNDHV 2 CSF4A area=6.3936e-11 perimeter=3.372e-05 m=1 
CX1/C22 GNDHV 2 CSF4A area=6.3936e-11 perimeter=3.372e-05 m=1 
CX1/C23 GNDHV 2 CSF4A area=6.3936e-11 perimeter=3.372e-05 m=1 
CX1/C24 VDDHV OUT CSF4A area=6.3936e-11 perimeter=3.372e-05 m=1 
CX1/C25 VDDHV OUT CSF4A area=6.3936e-11 perimeter=3.372e-05 m=1 
CX1/C26 VDDHV OUT CSF4A area=6.3936e-11 perimeter=3.372e-05 m=1 
CX1/C27 VDDHV OUT CSF4A area=6.3936e-11 perimeter=3.372e-05 m=1 
CX1/C28 GNDHV 2 CSF4A area=6.3936e-11 perimeter=3.372e-05 m=1 
CX1/C29 GNDHV 2 CSF4A area=6.3936e-11 perimeter=3.372e-05 m=1 
CX1/C30 GNDHV 2 CSF4A area=6.3936e-11 perimeter=3.372e-05 m=1 
CX1/C31 GNDHV 2 CSF4A area=6.3936e-11 perimeter=3.372e-05 m=1 
CX1/C32 GNDHV 2 CSF4A area=6.3936e-11 perimeter=3.372e-05 m=1 
CX1/C33 GNDHV 2 CSF4A area=6.3936e-11 perimeter=3.372e-05 m=1 
CX1/C34 GNDHV 2 CSF4A area=6.3936e-11 perimeter=3.372e-05 m=1 
CX1/C35 GNDHV 2 CSF4A area=6.3936e-11 perimeter=3.372e-05 m=1 
CX1/C36 GNDHV 2 CSF4A area=6.3936e-11 perimeter=3.372e-05 m=1 
CX1/C37 GNDHV 2 CSF4A area=6.3936e-11 perimeter=3.372e-05 m=1 
CX1/C38 VDDHV OUT CSF4A area=6.3936e-11 perimeter=3.372e-05 m=1 
CX1/C39 VDDHV OUT CSF4A area=6.3936e-11 perimeter=3.372e-05 m=1 
CX1/C40 VDDHV OUT CSF4A area=6.3936e-11 perimeter=3.372e-05 m=1 
CX1/C41 VDDHV OUT CSF4A area=6.3936e-11 perimeter=3.372e-05 m=1 
CX1/C42 GNDHV 2 CSF4A area=6.3936e-11 perimeter=3.372e-05 m=1 
CX1/C43 GNDHV 2 CSF4A area=6.3936e-11 perimeter=3.372e-05 m=1 
CX1/C44 GNDHV 2 CSF4A area=6.3936e-11 perimeter=3.372e-05 m=1 
CX1/C45 GNDHV 2 CSF4A area=6.3936e-11 perimeter=3.372e-05 m=1 
CX1/C46 GNDHV 2 CSF4A area=6.3936e-11 perimeter=3.372e-05 m=1 
CX1/C47 GNDHV 2 CSF4A area=6.3936e-11 perimeter=3.372e-05 m=1 
CX1/C48 GNDHV 2 CSF4A area=6.3936e-11 perimeter=3.372e-05 m=1 
CX1/C49 GNDHV 2 CSF4A area=6.3936e-11 perimeter=3.372e-05 m=1 
CX1/C50 GNDHV 2 CSF4A area=6.3936e-11 perimeter=3.372e-05 m=1 
CX1/C51 GNDHV 2 CSF4A area=6.3936e-11 perimeter=3.372e-05 m=1 
CX1/C52 VDDHV OUT CSF4A area=6.3936e-11 perimeter=3.372e-05 m=1 
CX1/C53 VDDHV OUT CSF4A area=6.3936e-11 perimeter=3.372e-05 m=1 
CX1/C54 VDDHV OUT CSF4A area=6.3936e-11 perimeter=3.372e-05 m=1 
CX1/C55 VDDHV OUT CSF4A area=6.3936e-11 perimeter=3.372e-05 m=1 
CX1/C56 GNDHV 2 CSF4A area=6.3936e-11 perimeter=3.372e-05 m=1 
CX1/C57 GNDHV 2 CSF4A area=6.3936e-11 perimeter=3.372e-05 m=1 
CX1/C58 GNDHV 2 CSF4A area=6.3936e-11 perimeter=3.372e-05 m=1 
CX1/C59 GNDHV 2 CSF4A area=6.3936e-11 perimeter=3.372e-05 m=1 
CX1/C60 GNDHV 2 CSF4A area=6.3936e-11 perimeter=3.372e-05 m=1 
CX1/C61 GNDHV 2 CSF4A area=6.3936e-11 perimeter=3.372e-05 m=1 
CX1/C62 GNDHV 2 CSF4A area=6.3936e-11 perimeter=3.372e-05 m=1 
CX1/C63 GNDHV 2 CSF4A area=6.3936e-11 perimeter=3.372e-05 m=1 
CX1/C64 GNDHV 2 CSF4A area=6.3936e-11 perimeter=3.372e-05 m=1 
CX1/C65 GNDHV 2 CSF4A area=6.3936e-11 perimeter=3.372e-05 m=1 
CX1/C66 VDDHV OUT CSF4A area=6.3936e-11 perimeter=3.372e-05 m=1 
CX1/C67 VDDHV OUT CSF4A area=6.3936e-11 perimeter=3.372e-05 m=1 
CX1/C68 VDDHV OUT CSF4A area=6.3936e-11 perimeter=3.372e-05 m=1 
CX1/C69 VDDHV OUT CSF4A area=6.3936e-11 perimeter=3.372e-05 m=1 
CX1/C70 GNDHV 2 CSF4A area=6.3936e-11 perimeter=3.372e-05 m=1 
CX1/C71 GNDHV 2 CSF4A area=6.3936e-11 perimeter=3.372e-05 m=1 
CX1/C72 GNDHV 2 CSF4A area=6.3936e-11 perimeter=3.372e-05 m=1 
CX1/C73 GNDHV 2 CSF4A area=6.3936e-11 perimeter=3.372e-05 m=1 
CX1/C74 GNDHV 2 CSF4A area=6.3936e-11 perimeter=3.372e-05 m=1 
CX1/C75 GNDHV 2 CSF4A area=6.3936e-11 perimeter=3.372e-05 m=1 
CX1/C76 GNDHV 2 CSF4A area=6.3936e-11 perimeter=3.372e-05 m=1 
CX1/C77 GNDHV 2 CSF4A area=6.3936e-11 perimeter=3.372e-05 m=1 
CX1/C78 GNDHV 2 CSF4A area=6.3936e-11 perimeter=3.372e-05 m=1 
CX1/C79 GNDHV 2 CSF4A area=6.3936e-11 perimeter=3.372e-05 m=1 
CX1/C80 VDDHV OUT CSF4A area=6.3936e-11 perimeter=3.372e-05 m=1 
CX1/C81 VDDHV OUT CSF4A area=6.3936e-11 perimeter=3.372e-05 m=1 
CX1/C82 VDDHV OUT CSF4A area=6.3936e-11 perimeter=3.372e-05 m=1 
CX1/C83 VDDHV OUT CSF4A area=6.3936e-11 perimeter=3.372e-05 m=1 
CX1/C84 GNDHV 2 CSF4A area=6.3936e-11 perimeter=3.372e-05 m=1 
CX1/C85 GNDHV 2 CSF4A area=6.3936e-11 perimeter=3.372e-05 m=1 
CX1/C86 GNDHV 2 CSF4A area=6.3936e-11 perimeter=3.372e-05 m=1 
CX1/C87 GNDHV 2 CSF4A area=6.3936e-11 perimeter=3.372e-05 m=1 
CX1/C88 GNDHV 2 CSF4A area=6.3936e-11 perimeter=3.372e-05 m=1 
CX1/C89 GNDHV 2 CSF4A area=6.3936e-11 perimeter=3.372e-05 m=1 
CX1/C90 GNDHV 2 CSF4A area=6.3936e-11 perimeter=3.372e-05 m=1 
CX1/C91 GNDHV 2 CSF4A area=6.3936e-11 perimeter=3.372e-05 m=1 
CX1/C92 GNDHV 2 CSF4A area=6.3936e-11 perimeter=3.372e-05 m=1 
CX1/C93 GNDHV 2 CSF4A area=6.3936e-11 perimeter=3.372e-05 m=1 
CX1/C94 VDDHV OUT CSF4A area=6.3936e-11 perimeter=3.372e-05 m=1 
CX1/C95 VDDHV OUT CSF4A area=6.3936e-11 perimeter=3.372e-05 m=1 
CX1/C96 VDDHV OUT CSF4A area=6.3936e-11 perimeter=3.372e-05 m=1 
CX1/C97 VDDHV OUT CSF4A area=6.3936e-11 perimeter=3.372e-05 m=1 
CX1/C98 VDDHV OUT CSF4A area=6.3936e-11 perimeter=3.372e-05 m=1 
CX1/C99 VDDHV OUT CSF4A area=6.3936e-11 perimeter=3.372e-05 m=1 
CX1/C100 VDDHV OUT CSF4A area=6.3936e-11 perimeter=3.372e-05 m=1 
CX1/C101 VDDHV OUT CSF4A area=6.3936e-11 perimeter=3.372e-05 m=1 
CX1/C102 VDDHV OUT CSF4A area=6.3936e-11 perimeter=3.372e-05 m=1 
CX1/C103 VDDHV OUT CSF4A area=6.3936e-11 perimeter=3.372e-05 m=1 
CX1/C104 VDDHV OUT CSF4A area=6.3936e-11 perimeter=3.372e-05 m=1 
CX1/C105 VDDHV OUT CSF4A area=6.3936e-11 perimeter=3.372e-05 m=1 
CX1/C106 VDDHV OUT CSF4A area=6.3936e-11 perimeter=3.372e-05 m=1 
CX1/C107 VDDHV OUT CSF4A area=6.3936e-11 perimeter=3.372e-05 m=1 
CX1/C108 VDDHV OUT CSF4A area=6.3936e-11 perimeter=3.372e-05 m=1 
CX1/C109 VDDHV OUT CSF4A area=6.3936e-11 perimeter=3.372e-05 m=1 
CX1/C110 VDDHV OUT CSF4A area=6.3936e-11 perimeter=3.372e-05 m=1 
CX1/C111 VDDHV OUT CSF4A area=6.3936e-11 perimeter=3.372e-05 m=1 
CX1/C112 VDDHV OUT CSF4A area=6.3936e-11 perimeter=3.372e-05 m=1 
CX1/C113 VDDHV OUT CSF4A area=6.3936e-11 perimeter=3.372e-05 m=1 
CX1/C114 VDDHV OUT CSF4A area=6.3936e-11 perimeter=3.372e-05 m=1 
CX1/C115 VDDHV OUT CSF4A area=6.3936e-11 perimeter=3.372e-05 m=1 
CX1/C116 VDDHV OUT CSF4A area=6.3936e-11 perimeter=3.372e-05 m=1 
CX1/C117 VDDHV OUT CSF4A area=6.3936e-11 perimeter=3.372e-05 m=1 
CX1/C118 VDDHV OUT CSF4A area=6.3936e-11 perimeter=3.372e-05 m=1 
CX1/C119 VDDHV OUT CSF4A area=6.3936e-11 perimeter=3.372e-05 m=1 
CX1/C120 VDDHV OUT CSF4A area=6.3936e-11 perimeter=3.372e-05 m=1 
CX1/C121 VDDHV OUT CSF4A area=6.3936e-11 perimeter=3.372e-05 m=1 
CX1/C122 VDDHV OUT CSF4A area=6.3936e-11 perimeter=3.372e-05 m=1 
CX1/C123 VDDHV OUT CSF4A area=6.3936e-11 perimeter=3.372e-05 m=1 
CX1/C124 VDDHV OUT CSF4A area=6.3936e-11 perimeter=3.372e-05 m=1 
CX1/C125 VDDHV OUT CSF4A area=6.3936e-11 perimeter=3.372e-05 m=1 
CX1/C126 VDDHV OUT CSF4A area=6.3936e-11 perimeter=3.372e-05 m=1 
CX1/C127 VDDHV OUT CSF4A area=6.3936e-11 perimeter=3.372e-05 m=1 
CX1/C128 VDDHV OUT CSF4A area=6.3936e-11 perimeter=3.372e-05 m=1 
CX1/C129 VDDHV OUT CSF4A area=6.3936e-11 perimeter=3.372e-05 m=1 
CX1/C130 VDDHV OUT CSF4A area=6.3936e-11 perimeter=3.372e-05 m=1 
CX1/C131 VDDHV OUT CSF4A area=6.3936e-11 perimeter=3.372e-05 m=1 
CX1/C132 VDDHV OUT CSF4A area=6.3936e-11 perimeter=3.372e-05 m=1 
CX1/C133 VDDHV OUT CSF4A area=6.3936e-11 perimeter=3.372e-05 m=1 
CX1/C134 VDDHV OUT CSF4A area=6.3936e-11 perimeter=3.372e-05 m=1 
CX1/C135 VDDHV OUT CSF4A area=6.3936e-11 perimeter=3.372e-05 m=1 
CX1/C136 VDDHV OUT CSF4A area=6.3936e-11 perimeter=3.372e-05 m=1 
CX1/C137 VDDHV OUT CSF4A area=6.3936e-11 perimeter=3.372e-05 m=1 
CX1/C138 VDDHV OUT CSF4A area=6.3936e-11 perimeter=3.372e-05 m=1 
CX1/C139 VDDHV OUT CSF4A area=6.3936e-11 perimeter=3.372e-05 m=1 
CX1/C140 VDDHV OUT CSF4A area=6.3936e-11 perimeter=3.372e-05 m=1 
CX1/C141 VDDHV OUT CSF4A area=6.3936e-11 perimeter=3.372e-05 m=1 
CX1/C142 VDDHV OUT CSF4A area=6.3936e-11 perimeter=3.372e-05 m=1 
CX1/C143 VDDHV OUT CSF4A area=6.3936e-11 perimeter=3.372e-05 m=1 
CX1/C144 VDDHV OUT CSF4A area=6.3936e-11 perimeter=3.372e-05 m=1 
CX1/C145 VDDHV OUT CSF4A area=6.3936e-11 perimeter=3.372e-05 m=1 
CX1/C146 VDDHV OUT CSF4A area=6.3936e-11 perimeter=3.372e-05 m=1 
CX1/C147 VDDHV OUT CSF4A area=6.3936e-11 perimeter=3.372e-05 m=1 
CX1/C148 VDDHV OUT CSF4A area=6.3936e-11 perimeter=3.372e-05 m=1 
CX1/C149 VDDHV OUT CSF4A area=6.3936e-11 perimeter=3.372e-05 m=1 
CX1/C150 VDDHV OUT CSF4A area=6.3936e-11 perimeter=3.372e-05 m=1 
CX1/C151 VDDHV OUT CSF4A area=6.3936e-11 perimeter=3.372e-05 m=1 
CX1/C152 VDDHV OUT CSF4A area=6.3936e-11 perimeter=3.372e-05 m=1 
CX1/C153 VDDHV OUT CSF4A area=6.3936e-11 perimeter=3.372e-05 m=1 
CX1/C154 VDDHV OUT CSF4A area=6.3936e-11 perimeter=3.372e-05 m=1 
CX1/C155 VDDHV OUT CSF4A area=6.3936e-11 perimeter=3.372e-05 m=1 
CX1/C156 VDDHV OUT CSF4A area=6.3936e-11 perimeter=3.372e-05 m=1 
CX1/C157 VDDHV OUT CSF4A area=6.3936e-11 perimeter=3.372e-05 m=1 
CX1/C158 VDDHV OUT CSF4A area=6.3936e-11 perimeter=3.372e-05 m=1 
CX1/C159 VDDHV OUT CSF4A area=6.3936e-11 perimeter=3.372e-05 m=1 
CX1/C160 VDDHV OUT CSF4A area=6.3936e-11 perimeter=3.372e-05 m=1 
CX1/C161 VDDHV OUT CSF4A area=6.3936e-11 perimeter=3.372e-05 m=1 
CX1/C162 VDDHV OUT CSF4A area=6.3936e-11 perimeter=3.372e-05 m=1 
CX1/C163 VDDHV OUT CSF4A area=6.3936e-11 perimeter=3.372e-05 m=1 
CX1/C164 VDDHV OUT CSF4A area=6.3936e-11 perimeter=3.372e-05 m=1 
CX1/C165 VDDHV OUT CSF4A area=6.3936e-11 perimeter=3.372e-05 m=1 
CX1/C166 VDDHV OUT CSF4A area=6.3936e-11 perimeter=3.372e-05 m=1 
CX1/C167 VDDHV OUT CSF4A area=6.3936e-11 perimeter=3.372e-05 m=1 
CX1/C168 VDDHV OUT CSF4A area=6.3936e-11 perimeter=3.372e-05 m=1 
CX1/C169 VDDHV OUT CSF4A area=6.3936e-11 perimeter=3.372e-05 m=1 
CX1/C170 VDDHV OUT CSF4A area=6.3936e-11 perimeter=3.372e-05 m=1 
CX1/C171 VDDHV OUT CSF4A area=6.3936e-11 perimeter=3.372e-05 m=1 
CX1/C172 VDDHV OUT CSF4A area=6.3936e-11 perimeter=3.372e-05 m=1 
CX1/C173 VDDHV OUT CSF4A area=6.3936e-11 perimeter=3.372e-05 m=1 
CX1/C174 VDDHV OUT CSF4A area=6.3936e-11 perimeter=3.372e-05 m=1 
CX1/C175 VDDHV OUT CSF4A area=6.3936e-11 perimeter=3.372e-05 m=1 
CX1/C176 VDDHV OUT CSF4A area=6.3936e-11 perimeter=3.372e-05 m=1 
CX1/C177 VDDHV OUT CSF4A area=6.3936e-11 perimeter=3.372e-05 m=1 
CX1/C178 VDDHV OUT CSF4A area=6.3936e-11 perimeter=3.372e-05 m=1 
CX1/C179 VDDHV OUT CSF4A area=6.3936e-11 perimeter=3.372e-05 m=1 
CX1/C180 VDDHV OUT CSF4A area=6.3936e-11 perimeter=3.372e-05 m=1 
CX1/C181 VDDHV OUT CSF4A area=6.3936e-11 perimeter=3.372e-05 m=1 
CX1/C182 VDDHV OUT CSF4A area=6.3936e-11 perimeter=3.372e-05 m=1 
CX1/C183 VDDHV OUT CSF4A area=6.3936e-11 perimeter=3.372e-05 m=1 
CX1/C184 VDDHV OUT CSF4A area=6.3936e-11 perimeter=3.372e-05 m=1 
CX1/C185 VDDHV OUT CSF4A area=6.3936e-11 perimeter=3.372e-05 m=1 
CX1/C186 VDDHV OUT CSF4A area=6.3936e-11 perimeter=3.372e-05 m=1 
CX1/C187 VDDHV OUT CSF4A area=6.3936e-11 perimeter=3.372e-05 m=1 
CX1/C188 VDDHV OUT CSF4A area=6.3936e-11 perimeter=3.372e-05 m=1 
CX1/C189 VDDHV OUT CSF4A area=6.3936e-11 perimeter=3.372e-05 m=1 
CX1/C190 VDDHV OUT CSF4A area=6.3936e-11 perimeter=3.372e-05 m=1 
CX1/C191 VDDHV OUT CSF4A area=6.3936e-11 perimeter=3.372e-05 m=1 
CX1/C192 VDDHV OUT CSF4A area=6.3936e-11 perimeter=3.372e-05 m=1 
CX1/C193 VDDHV OUT CSF4A area=6.3936e-11 perimeter=3.372e-05 m=1 
CX1/C194 VDDHV OUT CSF4A area=6.3936e-11 perimeter=3.372e-05 m=1 
CX1/C195 VDDHV OUT CSF4A area=6.3936e-11 perimeter=3.372e-05 m=1 
CX1/C196 VDDHV OUT CSF4A area=6.3936e-11 perimeter=3.372e-05 m=1 
CX1/C197 VDDHV OUT CSF4A area=6.3936e-11 perimeter=3.372e-05 m=1 
CX1/C198 VDDHV OUT CSF4A area=6.3936e-11 perimeter=3.372e-05 m=1 
CX1/C199 VDDHV OUT CSF4A area=6.3936e-11 perimeter=3.372e-05 m=1 
CX1/C200 VDDHV OUT CSF4A area=6.3936e-11 perimeter=3.372e-05 m=1 
CX1/C201 VDDHV OUT CSF4A area=6.3936e-11 perimeter=3.372e-05 m=1 
CX1/C202 VDDHV OUT CSF4A area=6.3936e-11 perimeter=3.372e-05 m=1 
CX1/C203 VDDHV OUT CSF4A area=6.3936e-11 perimeter=3.372e-05 m=1 
CX1/C204 VDDHV OUT CSF4A area=6.3936e-11 perimeter=3.372e-05 m=1 
CX1/C205 VDDHV OUT CSF4A area=6.3936e-11 perimeter=3.372e-05 m=1 
CX1/C206 VDDHV OUT CSF4A area=6.3936e-11 perimeter=3.372e-05 m=1 
CX1/C207 VDDHV OUT CSF4A area=6.3936e-11 perimeter=3.372e-05 m=1 
CX1/C208 VDDHV OUT CSF4A area=6.3936e-11 perimeter=3.372e-05 m=1 
CX1/C209 VDDHV OUT CSF4A area=6.3936e-11 perimeter=3.372e-05 m=1 
CX1/C210 VDDHV OUT CSF4A area=6.3936e-11 perimeter=3.372e-05 m=1 
CX1/C211 VDDHV OUT CSF4A area=6.3936e-11 perimeter=3.372e-05 m=1 
CX1/C212 VDDHV OUT CSF4A area=6.3936e-11 perimeter=3.372e-05 m=1 
CX1/C213 VDDHV OUT CSF4A area=6.3936e-11 perimeter=3.372e-05 m=1 
CX1/C214 VDDHV OUT CSF4A area=6.3936e-11 perimeter=3.372e-05 m=1 
CX1/C215 VDDHV OUT CSF4A area=6.3936e-11 perimeter=3.372e-05 m=1 
CX1/C216 VDDHV OUT CSF4A area=6.3936e-11 perimeter=3.372e-05 m=1 
CX1/C217 VDDHV OUT CSF4A area=6.3936e-11 perimeter=3.372e-05 m=1 
CX1/C218 VDDHV OUT CSF4A area=6.3936e-11 perimeter=3.372e-05 m=1 
CX1/C219 VDDHV OUT CSF4A area=6.3936e-11 perimeter=3.372e-05 m=1 
CX1/C220 VDDHV OUT CSF4A area=6.3936e-11 perimeter=3.372e-05 m=1 
CX1/C221 VDDHV OUT CSF4A area=6.3936e-11 perimeter=3.372e-05 m=1 
CX1/C222 VDDHV OUT CSF4A area=6.3936e-11 perimeter=3.372e-05 m=1 
CX1/C223 VDDHV OUT CSF4A area=6.3936e-11 perimeter=3.372e-05 m=1 
CX1/C224 VDDHV OUT CSF4A area=6.3936e-11 perimeter=3.372e-05 m=1 
CX1/C225 VDDHV OUT CSF4A area=6.3936e-11 perimeter=3.372e-05 m=1 
CX1/C226 VDDHV OUT CSF4A area=6.3936e-11 perimeter=3.372e-05 m=1 
CX1/C227 VDDHV OUT CSF4A area=6.3936e-11 perimeter=3.372e-05 m=1 
CX1/C228 VDDHV OUT CSF4A area=6.3936e-11 perimeter=3.372e-05 m=1 
CX1/C229 VDDHV OUT CSF4A area=6.3936e-11 perimeter=3.372e-05 m=1 
CX1/C230 VDDHV OUT CSF4A area=6.3936e-11 perimeter=3.372e-05 m=1 
CX1/C231 VDDHV OUT CSF4A area=6.3936e-11 perimeter=3.372e-05 m=1 
CX1/C232 VDDHV OUT CSF4A area=6.3936e-11 perimeter=3.372e-05 m=1 
CX1/C233 VDDHV OUT CSF4A area=6.3936e-11 perimeter=3.372e-05 m=1 
CX1/C234 VDDHV OUT CSF4A area=6.3936e-11 perimeter=3.372e-05 m=1 
CX1/C235 VDDHV OUT CSF4A area=6.3936e-11 perimeter=3.372e-05 m=1 
CX1/C236 VDDHV OUT CSF4A area=6.3936e-11 perimeter=3.372e-05 m=1 
CX1/C237 VDDHV OUT CSF4A area=6.3936e-11 perimeter=3.372e-05 m=1 
CX1/C238 VDDHV OUT CSF4A area=6.3936e-11 perimeter=3.372e-05 m=1 
CX1/C239 VDDHV OUT CSF4A area=6.3936e-11 perimeter=3.372e-05 m=1 
CX1/C240 VDDHV OUT CSF4A area=6.3936e-11 perimeter=3.372e-05 m=1 
CX1/C241 VDDHV OUT CSF4A area=6.3936e-11 perimeter=3.372e-05 m=1 
CX1/C242 VDDHV OUT CSF4A area=6.3936e-11 perimeter=3.372e-05 m=1 
CX1/C243 VDDHV OUT CSF4A area=6.3936e-11 perimeter=3.372e-05 m=1 
CX1/C244 VDDHV OUT CSF4A area=6.3936e-11 perimeter=3.372e-05 m=1 
CX1/C245 VDDHV OUT CSF4A area=6.3936e-11 perimeter=3.372e-05 m=1 
CX1/C246 VDDHV OUT CSF4A area=6.3936e-11 perimeter=3.372e-05 m=1 
CX1/C247 VDDHV OUT CSF4A area=6.3936e-11 perimeter=3.372e-05 m=1 
CX1/C248 VDDHV OUT CSF4A area=6.3936e-11 perimeter=3.372e-05 m=1 
CX1/C249 VDDHV OUT CSF4A area=6.3936e-11 perimeter=3.372e-05 m=1 
CX1/C250 VDDHV OUT CSF4A area=6.3936e-11 perimeter=3.372e-05 m=1 
CX1/C251 VDDHV OUT CSF4A area=6.3936e-11 perimeter=3.372e-05 m=1 
CX1/C252 VDDHV OUT CSF4A area=6.3936e-11 perimeter=3.372e-05 m=1 
CX1/C253 VDDHV OUT CSF4A area=6.3936e-11 perimeter=3.372e-05 m=1 
CX1/C254 VDDHV OUT CSF4A area=6.3936e-11 perimeter=3.372e-05 m=1 
CX1/C255 VDDHV OUT CSF4A area=6.3936e-11 perimeter=3.372e-05 m=1 
CX1/C256 VDDHV OUT CSF4A area=6.3936e-11 perimeter=3.372e-05 m=1 
CX1/C257 VDDHV OUT CSF4A area=6.3936e-11 perimeter=3.372e-05 m=1 
CX1/C258 VDDHV OUT CSF4A area=6.3936e-11 perimeter=3.372e-05 m=1 
CX1/C259 VDDHV OUT CSF4A area=6.3936e-11 perimeter=3.372e-05 m=1 
CX1/C260 VDDHV OUT CSF4A area=6.3936e-11 perimeter=3.372e-05 m=1 
CX1/C261 VDDHV OUT CSF4A area=6.3936e-11 perimeter=3.372e-05 m=1 
CX1/C262 VDDHV OUT CSF4A area=6.3936e-11 perimeter=3.372e-05 m=1 
CX1/C263 VDDHV OUT CSF4A area=6.3936e-11 perimeter=3.372e-05 m=1 
CX1/C264 VDDHV OUT CSF4A area=6.3936e-11 perimeter=3.372e-05 m=1 
CX1/C265 VDDHV OUT CSF4A area=6.3936e-11 perimeter=3.372e-05 m=1 
CX1/C266 VDDHV OUT CSF4A area=6.3936e-11 perimeter=3.372e-05 m=1 
CX1/C267 VDDHV OUT CSF4A area=6.3936e-11 perimeter=3.372e-05 m=1 
CX1/C268 VDDHV OUT CSF4A area=6.3936e-11 perimeter=3.372e-05 m=1 
CX1/C269 VDDHV OUT CSF4A area=6.3936e-11 perimeter=3.372e-05 m=1 
CX1/C270 VDDHV OUT CSF4A area=6.3936e-11 perimeter=3.372e-05 m=1 
CX1/C271 VDDHV OUT CSF4A area=6.3936e-11 perimeter=3.372e-05 m=1 
CX1/C272 VDDHV OUT CSF4A area=6.3936e-11 perimeter=3.372e-05 m=1 
CX1/C273 VDDHV OUT CSF4A area=6.3936e-11 perimeter=3.372e-05 m=1 
CX1/C274 VDDHV OUT CSF4A area=6.3936e-11 perimeter=3.372e-05 m=1 
CX1/C275 VDDHV OUT CSF4A area=6.3936e-11 perimeter=3.372e-05 m=1 
CX1/C276 VDDHV OUT CSF4A area=6.3936e-11 perimeter=3.372e-05 m=1 
CX1/C277 VDDHV OUT CSF4A area=6.3936e-11 perimeter=3.372e-05 m=1 
CX1/C278 VDDHV OUT CSF4A area=6.3936e-11 perimeter=3.372e-05 m=1 
CX1/C279 VDDHV OUT CSF4A area=6.3936e-11 perimeter=3.372e-05 m=1 
CX1/C280 VDDHV OUT CSF4A area=6.3936e-11 perimeter=3.372e-05 m=1 
CX1/C281 VDDHV OUT CSF4A area=6.3936e-11 perimeter=3.372e-05 m=1 
CX1/C282 VDDHV OUT CSF4A area=6.3936e-11 perimeter=3.372e-05 m=1 
CX1/C283 VDDHV OUT CSF4A area=6.3936e-11 perimeter=3.372e-05 m=1 
CX1/C284 VDDHV OUT CSF4A area=6.3936e-11 perimeter=3.372e-05 m=1 
CX1/C285 VDDHV OUT CSF4A area=6.3936e-11 perimeter=3.372e-05 m=1 
CX1/C286 VDDHV OUT CSF4A area=6.3936e-11 perimeter=3.372e-05 m=1 
CX1/C287 VDDHV OUT CSF4A area=6.3936e-11 perimeter=3.372e-05 m=1 
CX1/C288 VDDHV OUT CSF4A area=6.3936e-11 perimeter=3.372e-05 m=1 
CX1/C289 VDDHV OUT CSF4A area=6.3936e-11 perimeter=3.372e-05 m=1 
CX1/C290 VDDHV OUT CSF4A area=6.3936e-11 perimeter=3.372e-05 m=1 
CX1/C291 VDDHV OUT CSF4A area=6.3936e-11 perimeter=3.372e-05 m=1 
CX1/C292 VDDHV OUT CSF4A area=6.3936e-11 perimeter=3.372e-05 m=1 
CX1/C293 VDDHV OUT CSF4A area=6.3936e-11 perimeter=3.372e-05 m=1 
CX1/C294 VDDHV OUT CSF4A area=6.3936e-11 perimeter=3.372e-05 m=1 
CX1/C295 VDDHV OUT CSF4A area=6.3936e-11 perimeter=3.372e-05 m=1 
CX1/C296 VDDHV OUT CSF4A area=6.3936e-11 perimeter=3.372e-05 m=1 
CX1/C297 VDDHV OUT CSF4A area=6.3936e-11 perimeter=3.372e-05 m=1 
CX1/C298 VDDHV OUT CSF4A area=6.3936e-11 perimeter=3.372e-05 m=1 
CX1/C299 VDDHV OUT CSF4A area=6.3936e-11 perimeter=3.372e-05 m=1 
CX1/C300 VDDHV OUT CSF4A area=6.3936e-11 perimeter=3.372e-05 m=1 
CX1/C301 VDDHV OUT CSF4A area=6.3936e-11 perimeter=3.372e-05 m=1 
CX1/C302 VDDHV OUT CSF4A area=6.3936e-11 perimeter=3.372e-05 m=1 
CX1/C303 VDDHV OUT CSF4A area=6.3936e-11 perimeter=3.372e-05 m=1 
CX1/C304 VDDHV OUT CSF4A area=6.3936e-11 perimeter=3.372e-05 m=1 
CX1/C305 VDDHV OUT CSF4A area=6.3936e-11 perimeter=3.372e-05 m=1 
CX1/C306 VDDHV OUT CSF4A area=6.3936e-11 perimeter=3.372e-05 m=1 
CX1/C307 VDDHV OUT CSF4A area=6.3936e-11 perimeter=3.372e-05 m=1 
CX1/C308 VDDHV OUT CSF4A area=6.3936e-11 perimeter=3.372e-05 m=1 
CX1/C309 VDDHV OUT CSF4A area=6.3936e-11 perimeter=3.372e-05 m=1 
CX1/C310 VDDHV OUT CSF4A area=6.3936e-11 perimeter=3.372e-05 m=1 
CX1/C311 VDDHV OUT CSF4A area=6.3936e-11 perimeter=3.372e-05 m=1 
CX1/C312 VDDHV OUT CSF4A area=6.3936e-11 perimeter=3.372e-05 m=1 
CX1/C313 VDDHV OUT CSF4A area=6.3936e-11 perimeter=3.372e-05 m=1 
CX1/C314 VDDHV OUT CSF4A area=6.3936e-11 perimeter=3.372e-05 m=1 
CX1/C315 VDDHV OUT CSF4A area=6.3936e-11 perimeter=3.372e-05 m=1 
CX1/C316 VDDHV OUT CSF4A area=6.3936e-11 perimeter=3.372e-05 m=1 
CX1/C317 VDDHV OUT CSF4A area=6.3936e-11 perimeter=3.372e-05 m=1 
CX1/C318 VDDHV OUT CSF4A area=6.3936e-11 perimeter=3.372e-05 m=1 
CX1/C319 VDDHV OUT CSF4A area=6.3936e-11 perimeter=3.372e-05 m=1 
CX1/C320 VDDHV OUT CSF4A area=6.3936e-11 perimeter=3.372e-05 m=1 
CX1/C321 VDDHV OUT CSF4A area=6.3936e-11 perimeter=3.372e-05 m=1 
CX1/C322 VDDHV OUT CSF4A area=6.3936e-11 perimeter=3.372e-05 m=1 
CX1/C323 VDDHV OUT CSF4A area=6.3936e-11 perimeter=3.372e-05 m=1 
CX1/C324 VDDHV OUT CSF4A area=6.3936e-11 perimeter=3.372e-05 m=1 
CX1/C325 VDDHV OUT CSF4A area=6.3936e-11 perimeter=3.372e-05 m=1 
CX1/C326 VDDHV OUT CSF4A area=6.3936e-11 perimeter=3.372e-05 m=1 
CX1/C327 VDDHV OUT CSF4A area=6.3936e-11 perimeter=3.372e-05 m=1 
CX1/C328 VDDHV OUT CSF4A area=6.3936e-11 perimeter=3.372e-05 m=1 
CX1/C329 VDDHV OUT CSF4A area=6.3936e-11 perimeter=3.372e-05 m=1 
CX1/C330 VDDHV OUT CSF4A area=6.3936e-11 perimeter=3.372e-05 m=1 
CX1/C331 VDDHV OUT CSF4A area=6.3936e-11 perimeter=3.372e-05 m=1 
CX1/C332 VDDHV OUT CSF4A area=6.3936e-11 perimeter=3.372e-05 m=1 
CX1/C333 VDDHV OUT CSF4A area=6.3936e-11 perimeter=3.372e-05 m=1 
CX1/C334 VDDHV OUT CSF4A area=6.3936e-11 perimeter=3.372e-05 m=1 
CX1/C335 VDDHV OUT CSF4A area=6.3936e-11 perimeter=3.372e-05 m=1 
CX1/C336 VDDHV OUT CSF4A area=6.3936e-11 perimeter=3.372e-05 m=1 
CX1/C337 VDDHV OUT CSF4A area=6.3936e-11 perimeter=3.372e-05 m=1 
CX1/C338 VDDHV OUT CSF4A area=6.3936e-11 perimeter=3.372e-05 m=1 
CX1/C339 VDDHV OUT CSF4A area=6.3936e-11 perimeter=3.372e-05 m=1 
CX1/C340 VDDHV OUT CSF4A area=6.3936e-11 perimeter=3.372e-05 m=1 
CX1/C341 VDDHV OUT CSF4A area=6.3936e-11 perimeter=3.372e-05 m=1 
CX1/C342 VDDHV OUT CSF4A area=6.3936e-11 perimeter=3.372e-05 m=1 
CX1/C343 VDDHV OUT CSF4A area=6.3936e-11 perimeter=3.372e-05 m=1 
CX1/C344 VDDHV OUT CSF4A area=6.3936e-11 perimeter=3.372e-05 m=1 
CX1/C345 VDDHV OUT CSF4A area=6.3936e-11 perimeter=3.372e-05 m=1 
CX1/C346 VDDHV OUT CSF4A area=6.3936e-11 perimeter=3.372e-05 m=1 
CX1/C347 VDDHV OUT CSF4A area=6.3936e-11 perimeter=3.372e-05 m=1 
CX1/C348 VDDHV OUT CSF4A area=6.3936e-11 perimeter=3.372e-05 m=1 
CX1/C349 VDDHV OUT CSF4A area=6.3936e-11 perimeter=3.372e-05 m=1 
CX1/C350 VDDHV OUT CSF4A area=6.3936e-11 perimeter=3.372e-05 m=1 
CX1/C351 VDDHV OUT CSF4A area=6.3936e-11 perimeter=3.372e-05 m=1 
CX1/C352 VDDHV OUT CSF4A area=6.3936e-11 perimeter=3.372e-05 m=1 
CX1/C353 VDDHV OUT CSF4A area=6.3936e-11 perimeter=3.372e-05 m=1 
CX1/C354 VDDHV OUT CSF4A area=6.3936e-11 perimeter=3.372e-05 m=1 
CX1/C355 VDDHV OUT CSF4A area=6.3936e-11 perimeter=3.372e-05 m=1 
CX1/C356 VDDHV OUT CSF4A area=6.3936e-11 perimeter=3.372e-05 m=1 
CX1/C357 VDDHV OUT CSF4A area=6.3936e-11 perimeter=3.372e-05 m=1 
CX1/C358 VDDHV OUT CSF4A area=6.3936e-11 perimeter=3.372e-05 m=1 
CX1/C359 VDDHV OUT CSF4A area=6.3936e-11 perimeter=3.372e-05 m=1 
CX1/C360 VDDHV OUT CSF4A area=6.3936e-11 perimeter=3.372e-05 m=1 
CX1/C361 VDDHV OUT CSF4A area=6.3936e-11 perimeter=3.372e-05 m=1 
CX1/C362 VDDHV OUT CSF4A area=6.3936e-11 perimeter=3.372e-05 m=1 
CX1/C363 VDDHV OUT CSF4A area=6.3936e-11 perimeter=3.372e-05 m=1 
CX1/C364 VDDHV OUT CSF4A area=6.3936e-11 perimeter=3.372e-05 m=1 
CX1/C365 VDDHV OUT CSF4A area=6.3936e-11 perimeter=3.372e-05 m=1 
CX1/C366 VDDHV OUT CSF4A area=6.3936e-11 perimeter=3.372e-05 m=1 
CX1/C367 VDDHV OUT CSF4A area=6.3936e-11 perimeter=3.372e-05 m=1 
CX1/C368 VDDHV OUT CSF4A area=6.3936e-11 perimeter=3.372e-05 m=1 
CX1/C369 VDDHV OUT CSF4A area=6.3936e-11 perimeter=3.372e-05 m=1 
X2/X420/X0 OUT X2/15 VDDHV VSUBHV LDDP w=5e-05 l=9.4e-07 ad=2.19714e-10 pd=8.94366e-05 m=1 $[LDDP] 
X2/X420/X1 OUT X2/15 VDDHV VSUBHV LDDP w=5e-05 l=9.4e-07 ad=2.19714e-10 pd=8.94366e-05 m=1 $[LDDP] 
X2/X420/X2 OUT X2/15 VDDHV VSUBHV LDDP w=5e-05 l=9.4e-07 ad=2.19714e-10 pd=8.94366e-05 m=1 $[LDDP] 
X2/X420/X3 OUT X2/15 VDDHV VSUBHV LDDP w=5e-05 l=9.4e-07 ad=2.19714e-10 pd=8.94366e-05 m=1 $[LDDP] 
X2/X420/X4 OUT X2/15 VDDHV VSUBHV LDDP w=5e-05 l=9.4e-07 ad=2.19714e-10 pd=8.94366e-05 m=1 $[LDDP] 
X2/X420/X5 OUT X2/15 VDDHV VSUBHV LDDP w=5e-05 l=9.4e-07 ad=2.19714e-10 pd=8.94366e-05 m=1 $[LDDP] 
X2/X420/X6 OUT X2/15 VDDHV VSUBHV LDDP w=5e-05 l=9.4e-07 ad=2.19714e-10 pd=8.94366e-05 m=1 $[LDDP] 
X2/X420/X7 OUT X2/15 VDDHV VSUBHV LDDP w=5e-05 l=9.4e-07 ad=2.19714e-10 pd=8.94366e-05 m=1 $[LDDP] 
X2/X420/X8 OUT X2/15 VDDHV VSUBHV LDDP w=5e-05 l=9.4e-07 ad=2.19714e-10 pd=8.94366e-05 m=1 $[LDDP] 
X2/X420/X9 OUT X2/15 VDDHV VSUBHV LDDP w=5e-05 l=9.4e-07 ad=2.19714e-10 pd=8.94366e-05 m=1 $[LDDP] 
X2/X420/X10 OUT X2/15 VDDHV VSUBHV LDDP w=5e-05 l=9.4e-07 ad=2.19714e-10 pd=8.94366e-05 m=1 $[LDDP] 
X2/X420/X11 OUT X2/15 VDDHV VSUBHV LDDP w=5e-05 l=9.4e-07 ad=2.19714e-10 pd=8.94366e-05 m=1 $[LDDP] 
X2/X421/X0 2 X2/11 GNDHV VSUBHV LDDN w=2e-05 l=1.25e-06 m=1 $[LDDN] 
X2/X422/X0 X2/14 X2/13 GNDHV VSUBHV LDDN w=2e-05 l=1.25e-06 m=1 $[LDDN] 
MX2/X423/M0 X2/11 DOWN GNDD VSUBHV NE3 L=3.5e-07 W=2.2e-07 AD=1.984e-13 AS=1.984e-13 PD=1.88e-06 PS=1.88e-06 m=1 
MX2/X424/M0 X2/12 UP GNDD VSUBHV NE3 L=3.5e-07 W=2.2e-07 AD=1.984e-13 AS=1.984e-13 PD=1.88e-06 PS=1.88e-06 m=1 
MX2/X425/M0 X2/13 X2/12 GNDD VSUBHV NE3 L=3.5e-07 W=2.2e-07 AD=1.984e-13 AS=1.984e-13 PD=1.88e-06 PS=1.88e-06 m=1 
RX2/X426/R0 GNDHV 2 RPP1K1_3 L=0.0002029 W=2e-06 m=1 $SUB=VSUBHV 
RX2/X427/R0 X2/15 VDDHV RPP1K1_3 L=0.0002029 W=2e-06 m=1 $SUB=VSUBHV 
DX2/X428/D1 GNDHV 2 VSUBHV DSBA A=1.41e-11 P=3.188e-05 perimeter=3.188e-05 m=1 
DX2/X428/D2 GNDHV 2 VSUBHV DSBA A=1.41e-11 P=3.188e-05 perimeter=3.188e-05 m=1 
DX2/X428/D3 GNDHV 2 VSUBHV DSBA A=1.41e-11 P=3.188e-05 perimeter=3.188e-05 m=1 
DX2/X428/D4 GNDHV 2 VSUBHV DSBA A=1.41e-11 P=3.188e-05 perimeter=3.188e-05 m=1 
DX2/X428/D5 GNDHV 2 VSUBHV DSBA A=1.41e-11 P=3.188e-05 perimeter=3.188e-05 m=1 
DX2/X428/D6 GNDHV 2 VSUBHV DSBA A=1.41e-11 P=3.188e-05 perimeter=3.188e-05 m=1 
DX2/X428/D7 GNDHV 2 VSUBHV DSBA A=1.41e-11 P=3.188e-05 perimeter=3.188e-05 m=1 
DX2/X428/D8 GNDHV 2 VSUBHV DSBA A=1.41e-11 P=3.188e-05 perimeter=3.188e-05 m=1 
DX2/X428/D9 GNDHV 2 VSUBHV DSBA A=1.41e-11 P=3.188e-05 perimeter=3.188e-05 m=1 
DX2/X428/D10 GNDHV 2 VSUBHV DSBA A=1.41e-11 P=3.188e-05 perimeter=3.188e-05 m=1 
DX2/X428/D11 GNDHV 2 VSUBHV DSBA A=1.41e-11 P=3.188e-05 perimeter=3.188e-05 m=1 
DX2/X428/D12 GNDHV 2 VSUBHV DSBA A=1.41e-11 P=3.188e-05 perimeter=3.188e-05 m=1 
DX2/X428/D13 GNDHV 2 VSUBHV DSBA A=1.41e-11 P=3.188e-05 perimeter=3.188e-05 m=1 
DX2/X428/D14 GNDHV 2 VSUBHV DSBA A=1.41e-11 P=3.188e-05 perimeter=3.188e-05 m=1 
DX2/X428/D15 GNDHV 2 VSUBHV DSBA A=1.41e-11 P=3.188e-05 perimeter=3.188e-05 m=1 
DX2/X428/D16 GNDHV 2 VSUBHV DSBA A=1.41e-11 P=3.188e-05 perimeter=3.188e-05 m=1 
DX2/X428/D17 GNDHV 2 VSUBHV DSBA A=1.41e-11 P=3.188e-05 perimeter=3.188e-05 m=1 
DX2/X428/D18 GNDHV 2 VSUBHV DSBA A=1.41e-11 P=3.188e-05 perimeter=3.188e-05 m=1 
DX2/X428/D19 GNDHV 2 VSUBHV DSBA A=1.41e-11 P=3.188e-05 perimeter=3.188e-05 m=1 
DX2/X428/D20 GNDHV 2 VSUBHV DSBA A=1.41e-11 P=3.188e-05 perimeter=3.188e-05 m=1 
DX2/X429/D1 OUT VDDHV DPP20 A=2.5e-10 P=0.00011 perimeter=0.00011 m=1 
DX2/X430/D1 OUT VDDHV DPP20 A=2.5e-10 P=0.00011 perimeter=0.00011 m=1 
RX2/X431/R0 2 VDDHV RPP1K1_3 L=0.0002537 W=2e-06 m=1 $SUB=VSUBHV 
RX2/X432/R0 X2/14 X2/15 RPP1K1_3 L=0.0002537 W=2e-06 m=1 $SUB=VSUBHV 
MX2/X433/M0 X2/11 DOWN VDD3 VDD3 PE3 L=3e-07 W=4.4e-07 AD=2.112e-13 AS=2.112e-13 PD=1.84e-06 PS=1.84e-06 m=1 
MX2/X434/M0 X2/12 UP VDD3 VDD3 PE3 L=3e-07 W=4.4e-07 AD=2.112e-13 AS=2.112e-13 PD=1.84e-06 PS=1.84e-06 m=1 
MX2/X435/M0 X2/13 X2/12 VDD3 VDD3 PE3 L=3e-07 W=4.4e-07 AD=2.112e-13 AS=2.112e-13 PD=1.84e-06 PS=1.84e-06 m=1 
.ends


