** Schematic Netlist, pvs precompare
** 

.subckt del_test GNDD IN OUT OUT2 VDDD 
MXI2/Xinvr_1/MMN1 OUT2 B GNDD GNDD NE3 W=9.6e-07 L=3.5e-07 m=1 AD=4.608e-13 AS=4.608e-13 PD=2.88e-06 PS=2.88e-06 
MXI2/Xinvr_1/MMP1 OUT2 B VDDD VDDD PE3 W=2.94e-06 L=3e-07 m=1 AD=1.4112e-12 AS=1.4112e-12 PD=6.84e-06 PS=6.84e-06 
MXI0/Xinvr_1/MMN1 OUT A GNDD GNDD NE3 W=9.6e-07 L=3.5e-07 m=1 AD=4.608e-13 AS=4.608e-13 PD=2.88e-06 PS=2.88e-06 
MXI0/Xinvr_1/MMP1 OUT A VDDD VDDD PE3 W=2.94e-06 L=3e-07 m=1 AD=1.4112e-12 AS=1.4112e-12 PD=6.84e-06 PS=6.84e-06 
MXI3/Xinvr_1/MMN1 B IN GNDD GNDD NE3 W=2.4e-06 L=3.5e-07 m=1 AD=1.152e-12 AS=1.152e-12 PD=5.76e-06 PS=5.76e-06 
MXI3/Xinvr_1/MMP1 B IN VDDD VDDD PE3 W=5.88e-06 L=3e-07 m=1 AD=2.8224e-12 AS=2.8224e-12 PD=1.272e-05 PS=1.272e-05 
MXI1/Xinvr_1/MMN1 A IN GNDD GNDD NE3 W=2.4e-06 L=3.5e-07 m=1 AD=1.152e-12 AS=1.152e-12 PD=5.76e-06 PS=5.76e-06 
MXI1/Xinvr_1/MMP1 A IN VDDD VDDD PE3 W=5.88e-06 L=3e-07 m=1 AD=2.8224e-12 AS=2.8224e-12 PD=1.272e-05 PS=1.272e-05 
.ends


