** Layout Netlist, pvs precompare
** 

.subckt del_test GNDD IN OUT OUT2 VDDD 
MX6/M0 OUT 4 GNDD GNDD NE3 L=3.5e-07 W=4.8e-07 AD=1.296e-13 AS=4.408e-13 PD=1.02e-06 PS=3.52e-06 m=1 
MX6/M1 GNDD 4 OUT GNDD NE3 L=3.5e-07 W=4.8e-07 AD=4.408e-13 AS=1.296e-13 PD=3.52e-06 PS=1.02e-06 m=1 
MX6/M2 OUT 4 VDDD VDDD PE3 L=3.00472e-07 W=1.45971e-06 AD=2.751e-13 AS=8.151e-13 PD=1.87971e-06 PS=4.50971e-06 m=1 
MX6/M3 VDDD 4 OUT VDDD PE3 L=3.00472e-07 W=1.45971e-06 AD=8.01e-13 AS=2.751e-13 PD=4.48971e-06 PS=1.87971e-06 m=1 
MX7/M0 OUT2 1 GNDD GNDD NE3 L=3.5e-07 W=4.8e-07 AD=1.296e-13 AS=4.408e-13 PD=1.02e-06 PS=3.52e-06 m=1 
MX7/M1 GNDD 1 OUT2 GNDD NE3 L=3.5e-07 W=4.8e-07 AD=4.408e-13 AS=1.296e-13 PD=3.52e-06 PS=1.02e-06 m=1 
MX7/M2 OUT2 1 VDDD VDDD PE3 L=3.00472e-07 W=1.45971e-06 AD=2.751e-13 AS=8.151e-13 PD=1.87971e-06 PS=4.50971e-06 m=1 
MX7/M3 VDDD 1 OUT2 VDDD PE3 L=3.00472e-07 W=1.45971e-06 AD=8.01e-13 AS=2.751e-13 PD=4.48971e-06 PS=1.87971e-06 m=1 
MX8/M0 GNDD IN 4 GNDD NE3 L=3.5e-07 W=8e-07 AD=4.148e-13 AS=3.84e-13 PD=1.98e-06 PS=2.56e-06 m=1 
MX8/M1 4 IN GNDD GNDD NE3 L=3.5e-07 W=8e-07 AD=2.16e-13 AS=4.148e-13 PD=1.34e-06 PS=1.98e-06 m=1 
MX8/M2 GNDD IN 4 GNDD NE3 L=3.5e-07 W=8e-07 AD=9.852e-13 AS=2.16e-13 PD=4.14e-06 PS=1.34e-06 m=1 
MX8/M3 4 IN VDDD VDDD PE3 L=3.00566e-07 W=1.47006e-06 AD=2.54913e-13 AS=5.79287e-13 PD=1.86506e-06 PS=3.69506e-06 m=1 
MX8/M4 VDDD IN 4 VDDD PE3 L=3.00566e-07 W=1.47006e-06 AD=2.83187e-13 AS=2.54913e-13 PD=1.86506e-06 PS=1.86506e-06 m=1 
MX8/M5 4 IN VDDD VDDD PE3 L=3.00566e-07 W=1.47006e-06 AD=2.54913e-13 AS=2.83187e-13 PD=1.86506e-06 PS=1.86506e-06 m=1 
MX8/M6 VDDD IN 4 VDDD PE3 L=3.00566e-07 W=1.47006e-06 AD=1.48669e-12 AS=2.54913e-13 PD=5.27506e-06 PS=1.86506e-06 m=1 
MX9/M0 GNDD IN 1 GNDD NE3 L=3.5e-07 W=8e-07 AD=4.148e-13 AS=3.84e-13 PD=1.98e-06 PS=2.56e-06 m=1 
MX9/M1 1 IN GNDD GNDD NE3 L=3.5e-07 W=8e-07 AD=2.16e-13 AS=4.148e-13 PD=1.34e-06 PS=1.98e-06 m=1 
MX9/M2 GNDD IN 1 GNDD NE3 L=3.5e-07 W=8e-07 AD=9.852e-13 AS=2.16e-13 PD=4.14e-06 PS=1.34e-06 m=1 
MX9/M3 1 IN VDDD VDDD PE3 L=3.00566e-07 W=1.47006e-06 AD=2.54913e-13 AS=5.79287e-13 PD=1.86506e-06 PS=3.69506e-06 m=1 
MX9/M4 VDDD IN 1 VDDD PE3 L=3.00566e-07 W=1.47006e-06 AD=2.83187e-13 AS=2.54913e-13 PD=1.86506e-06 PS=1.86506e-06 m=1 
MX9/M5 1 IN VDDD VDDD PE3 L=3.00566e-07 W=1.47006e-06 AD=2.54913e-13 AS=2.83187e-13 PD=1.86506e-06 PS=1.86506e-06 m=1 
MX9/M6 VDDD IN 1 VDDD PE3 L=3.00566e-07 W=1.47006e-06 AD=1.48669e-12 AS=2.54913e-13 PD=5.27506e-06 PS=1.86506e-06 m=1 
.ends


