***SUBCKT-DEFINITIONS***
.SUBCKT MOSVC3 G NW SB
.ENDS
