***SUBCKT-DEFINITIONS***
.SUBCKT NE3I_6 D G S B NW SB
.ENDS
