***SUBCKT-DEFINITIONS***
.SUBCKT MOSVC3 G NW SB
.ENDS
.SUBCKT nedia D G S SB
.ENDS
