***SUBCKT-DEFINITIONS***
.SUBCKT ped D G S SB
.ENDS
.SUBCKT nedia D G S SB
.ENDS
