* +++++++++++++++++++++++++++++++++++++++++++++++++++++++++ *
* CDL Netlist:                                              *
*                                                           *
* Cell Name  : bias                                         *
* Netlisted  : Mon Aug 26 08:37:01 2024                     *
* PVS Version: 23.11-s036 Wed Jan 17 18:11:41 PST 2024      *
* +++++++++++++++++++++++++++++++++++++++++++++++++++++++++ *
*.LDD
*.DEVTMPLT 0 MN(ne3) nem ndiff(D) p1trm(G) ndiff(S) bulk(B)
*.DEVTMPLT 1 MP(pe3) pem pdiff(D) p1trm(G) pdiff(S) nwtrm(B)
*.DEVTMPLT 2 NE3I_6() nemi_6 ndiff(D) p1trm(G) ndiff(S) pwitrm(B) dnwtrm(NW) bulk(SB)
*.DEVTMPLT 3 MOSVC3() mosvcm p1trm(G) nwtrm(NW) bulk(SB)
*.DEVTMPLT 4 Q(qpvc3) qpvmc bulk(C) nwtrm(B) pdiff(E)
*.DEVTMPLT 5 D(p_dnw) p_dnw bulk(POS) nwtrm(NEG)
*.DEVTMPLT 6 D(p_ddnw) p_ddnw bulk(POS) dnwtrm(NEG)
*.DEVTMPLT 7 D(p_dipdnwmv) p_dipwmv pwitrm(POS) dnwtrm(NEG)
*.DEVTMPLT 8 D(p_dnw3) p_dnwm bulk(POS) nwtrm(NEG)
*.DEVTMPLT 9 R(rpp1k1_3) rpp1k1_s p1trm(POS) p1trm(NEG) bulk(SUB)
*.DEVTMPLT 10 R(rpp1k1_3) rpp1k1_n p1trm(POS) p1trm(NEG) nwtrm(SUB)
*.DEVTMPLT 11 C(cmm5t) cmim capm(POS) m4trm(NEG)

* +++++++++++++++++++++++++++++++++++++++++++++++++++++++++ *
* Sub cell: NE3I_6                                          *
* +++++++++++++++++++++++++++++++++++++++++++++++++++++++++ *
.subckt NE3I_6 D G S B NW SB
.ends NE3I_6

* +++++++++++++++++++++++++++++++++++++++++++++++++++++++++ *
* Sub cell: MOSVC3                                          *
* +++++++++++++++++++++++++++++++++++++++++++++++++++++++++ *
.subckt MOSVC3 G NW SB
.ends MOSVC3

* +++++++++++++++++++++++++++++++++++++++++++++++++++++++++ *
* Sub cell: VIA2_C_CDNS_724654214590                        *
* +++++++++++++++++++++++++++++++++++++++++++++++++++++++++ *
.subckt VIA2_C_CDNS_724654214590 1
** N=1 EP=1 FDC=0
.ends VIA2_C_CDNS_724654214590

* +++++++++++++++++++++++++++++++++++++++++++++++++++++++++ *
* Sub cell: VIA2_C_CDNS_724654214593                        *
* +++++++++++++++++++++++++++++++++++++++++++++++++++++++++ *
.subckt VIA2_C_CDNS_724654214593 1
** N=1 EP=1 FDC=0
.ends VIA2_C_CDNS_724654214593

* +++++++++++++++++++++++++++++++++++++++++++++++++++++++++ *
* Sub cell: VIA1_C_CDNS_724654214594                        *
* +++++++++++++++++++++++++++++++++++++++++++++++++++++++++ *
.subckt VIA1_C_CDNS_724654214594 1
** N=1 EP=1 FDC=0
.ends VIA1_C_CDNS_724654214594

* +++++++++++++++++++++++++++++++++++++++++++++++++++++++++ *
* Sub cell: VIA2_C_CDNS_724654214595                        *
* +++++++++++++++++++++++++++++++++++++++++++++++++++++++++ *
.subckt VIA2_C_CDNS_724654214595 1
** N=1 EP=1 FDC=0
.ends VIA2_C_CDNS_724654214595

* +++++++++++++++++++++++++++++++++++++++++++++++++++++++++ *
* Sub cell: VIA1_C_CDNS_724654214597                        *
* +++++++++++++++++++++++++++++++++++++++++++++++++++++++++ *
.subckt VIA1_C_CDNS_724654214597 1
** N=1 EP=1 FDC=0
.ends VIA1_C_CDNS_724654214597

* +++++++++++++++++++++++++++++++++++++++++++++++++++++++++ *
* Sub cell: VIA1_C_CDNS_724654214598                        *
* +++++++++++++++++++++++++++++++++++++++++++++++++++++++++ *
.subckt VIA1_C_CDNS_724654214598 1
** N=1 EP=1 FDC=0
.ends VIA1_C_CDNS_724654214598

* +++++++++++++++++++++++++++++++++++++++++++++++++++++++++ *
* Sub cell: VIA1_C_CDNS_724654214599                        *
* +++++++++++++++++++++++++++++++++++++++++++++++++++++++++ *
.subckt VIA1_C_CDNS_724654214599 1
** N=1 EP=1 FDC=0
.ends VIA1_C_CDNS_724654214599

* +++++++++++++++++++++++++++++++++++++++++++++++++++++++++ *
* Sub cell: VIA1_C_CDNS_7246542145910                       *
* +++++++++++++++++++++++++++++++++++++++++++++++++++++++++ *
.subckt VIA1_C_CDNS_7246542145910 1
** N=1 EP=1 FDC=0
.ends VIA1_C_CDNS_7246542145910

* +++++++++++++++++++++++++++++++++++++++++++++++++++++++++ *
* Sub cell: VIA1_C_CDNS_7246542145911                       *
* +++++++++++++++++++++++++++++++++++++++++++++++++++++++++ *
.subckt VIA1_C_CDNS_7246542145911 1
** N=1 EP=1 FDC=0
.ends VIA1_C_CDNS_7246542145911

* +++++++++++++++++++++++++++++++++++++++++++++++++++++++++ *
* Sub cell: VIA1_C_CDNS_7246542145912                       *
* +++++++++++++++++++++++++++++++++++++++++++++++++++++++++ *
.subckt VIA1_C_CDNS_7246542145912 1
** N=1 EP=1 FDC=0
.ends VIA1_C_CDNS_7246542145912

* +++++++++++++++++++++++++++++++++++++++++++++++++++++++++ *
* Sub cell: VIA2_C_CDNS_7246542145913                       *
* +++++++++++++++++++++++++++++++++++++++++++++++++++++++++ *
.subckt VIA2_C_CDNS_7246542145913 1
** N=1 EP=1 FDC=0
.ends VIA2_C_CDNS_7246542145913

* +++++++++++++++++++++++++++++++++++++++++++++++++++++++++ *
* Sub cell: VIA1_C_CDNS_7246542145914                       *
* +++++++++++++++++++++++++++++++++++++++++++++++++++++++++ *
.subckt VIA1_C_CDNS_7246542145914 1
** N=1 EP=1 FDC=0
.ends VIA1_C_CDNS_7246542145914

* +++++++++++++++++++++++++++++++++++++++++++++++++++++++++ *
* Sub cell: VIA1_C_CDNS_7246542145915                       *
* +++++++++++++++++++++++++++++++++++++++++++++++++++++++++ *
.subckt VIA1_C_CDNS_7246542145915 1
** N=1 EP=1 FDC=0
.ends VIA1_C_CDNS_7246542145915

* +++++++++++++++++++++++++++++++++++++++++++++++++++++++++ *
* Sub cell: VIA1_C_CDNS_7246542145916                       *
* +++++++++++++++++++++++++++++++++++++++++++++++++++++++++ *
.subckt VIA1_C_CDNS_7246542145916 1
** N=1 EP=1 FDC=0
.ends VIA1_C_CDNS_7246542145916

* +++++++++++++++++++++++++++++++++++++++++++++++++++++++++ *
* Sub cell: VIA2_C_CDNS_7246542145917                       *
* +++++++++++++++++++++++++++++++++++++++++++++++++++++++++ *
.subckt VIA2_C_CDNS_7246542145917 1
** N=1 EP=1 FDC=0
.ends VIA2_C_CDNS_7246542145917

* +++++++++++++++++++++++++++++++++++++++++++++++++++++++++ *
* Sub cell: VIA2_C_CDNS_7246542145918                       *
* +++++++++++++++++++++++++++++++++++++++++++++++++++++++++ *
.subckt VIA2_C_CDNS_7246542145918 1
** N=1 EP=1 FDC=0
.ends VIA2_C_CDNS_7246542145918

* +++++++++++++++++++++++++++++++++++++++++++++++++++++++++ *
* Sub cell: VIA2_C_CDNS_7246542145919                       *
* +++++++++++++++++++++++++++++++++++++++++++++++++++++++++ *
.subckt VIA2_C_CDNS_7246542145919 1
** N=1 EP=1 FDC=0
.ends VIA2_C_CDNS_7246542145919

* +++++++++++++++++++++++++++++++++++++++++++++++++++++++++ *
* Sub cell: VIA1_C_CDNS_7246542145920                       *
* +++++++++++++++++++++++++++++++++++++++++++++++++++++++++ *
.subckt VIA1_C_CDNS_7246542145920 1
** N=1 EP=1 FDC=0
.ends VIA1_C_CDNS_7246542145920

* +++++++++++++++++++++++++++++++++++++++++++++++++++++++++ *
* Sub cell: VIA1_C_CDNS_7246542145921                       *
* +++++++++++++++++++++++++++++++++++++++++++++++++++++++++ *
.subckt VIA1_C_CDNS_7246542145921 1
** N=1 EP=1 FDC=0
.ends VIA1_C_CDNS_7246542145921

* +++++++++++++++++++++++++++++++++++++++++++++++++++++++++ *
* Sub cell: VIA2_C_CDNS_7246542145922                       *
* +++++++++++++++++++++++++++++++++++++++++++++++++++++++++ *
.subckt VIA2_C_CDNS_7246542145922 1
** N=1 EP=1 FDC=0
.ends VIA2_C_CDNS_7246542145922

* +++++++++++++++++++++++++++++++++++++++++++++++++++++++++ *
* Sub cell: VIA1_C_CDNS_7246542145923                       *
* +++++++++++++++++++++++++++++++++++++++++++++++++++++++++ *
.subckt VIA1_C_CDNS_7246542145923 1
** N=1 EP=1 FDC=0
.ends VIA1_C_CDNS_7246542145923

* +++++++++++++++++++++++++++++++++++++++++++++++++++++++++ *
* Sub cell: VIA2_C_CDNS_7246542145924                       *
* +++++++++++++++++++++++++++++++++++++++++++++++++++++++++ *
.subckt VIA2_C_CDNS_7246542145924 1
** N=1 EP=1 FDC=0
.ends VIA2_C_CDNS_7246542145924

* +++++++++++++++++++++++++++++++++++++++++++++++++++++++++ *
* Sub cell: VIA3_C_CDNS_7246542145925                       *
* +++++++++++++++++++++++++++++++++++++++++++++++++++++++++ *
.subckt VIA3_C_CDNS_7246542145925 1
** N=1 EP=1 FDC=0
.ends VIA3_C_CDNS_7246542145925

* +++++++++++++++++++++++++++++++++++++++++++++++++++++++++ *
* Sub cell: VIA1_C_CDNS_7246542145926                       *
* +++++++++++++++++++++++++++++++++++++++++++++++++++++++++ *
.subckt VIA1_C_CDNS_7246542145926 1
** N=1 EP=1 FDC=0
.ends VIA1_C_CDNS_7246542145926

* +++++++++++++++++++++++++++++++++++++++++++++++++++++++++ *
* Sub cell: VIA2_C_CDNS_7246542145927                       *
* +++++++++++++++++++++++++++++++++++++++++++++++++++++++++ *
.subckt VIA2_C_CDNS_7246542145927 1
** N=1 EP=1 FDC=0
.ends VIA2_C_CDNS_7246542145927

* +++++++++++++++++++++++++++++++++++++++++++++++++++++++++ *
* Sub cell: VIA2_C_CDNS_7246542145928                       *
* +++++++++++++++++++++++++++++++++++++++++++++++++++++++++ *
.subckt VIA2_C_CDNS_7246542145928 1
** N=1 EP=1 FDC=0
.ends VIA2_C_CDNS_7246542145928

* +++++++++++++++++++++++++++++++++++++++++++++++++++++++++ *
* Sub cell: VIA2_C_CDNS_7246542145936                       *
* +++++++++++++++++++++++++++++++++++++++++++++++++++++++++ *
.subckt VIA2_C_CDNS_7246542145936 1
** N=1 EP=1 FDC=0
.ends VIA2_C_CDNS_7246542145936

* +++++++++++++++++++++++++++++++++++++++++++++++++++++++++ *
* Sub cell: VIA1_C_CDNS_7246542145937                       *
* +++++++++++++++++++++++++++++++++++++++++++++++++++++++++ *
.subckt VIA1_C_CDNS_7246542145937 1
** N=1 EP=1 FDC=0
.ends VIA1_C_CDNS_7246542145937

* +++++++++++++++++++++++++++++++++++++++++++++++++++++++++ *
* Sub cell: VIA1_C_CDNS_7246542145940                       *
* +++++++++++++++++++++++++++++++++++++++++++++++++++++++++ *
.subckt VIA1_C_CDNS_7246542145940 1 2
** N=2 EP=2 FDC=0
.ends VIA1_C_CDNS_7246542145940

* +++++++++++++++++++++++++++++++++++++++++++++++++++++++++ *
* Sub cell: pe3_CDNS_724654214590                           *
* +++++++++++++++++++++++++++++++++++++++++++++++++++++++++ *
.subckt pe3_CDNS_724654214590 1 2 3 4 5
** N=5 EP=5 FDC=11
M0 3 2 1 4 pe3 L=1e-06 W=1e-05 AD=2.7e-12 AS=4.8e-12 PD=1.054e-05 PS=2.096e-05 $X=0 $Y=0 $dt=1
M1 1 2 3 4 pe3 L=1e-06 W=1e-05 AD=2.7e-12 AS=2.7e-12 PD=1.054e-05 PS=1.054e-05 $X=1540 $Y=0 $dt=1
M2 3 2 1 4 pe3 L=1e-06 W=1e-05 AD=2.7e-12 AS=2.7e-12 PD=1.054e-05 PS=1.054e-05 $X=3080 $Y=0 $dt=1
M3 1 2 3 4 pe3 L=1e-06 W=1e-05 AD=2.7e-12 AS=2.7e-12 PD=1.054e-05 PS=1.054e-05 $X=4620 $Y=0 $dt=1
M4 3 2 1 4 pe3 L=1e-06 W=1e-05 AD=2.7e-12 AS=2.7e-12 PD=1.054e-05 PS=1.054e-05 $X=6160 $Y=0 $dt=1
M5 1 2 3 4 pe3 L=1e-06 W=1e-05 AD=2.7e-12 AS=2.7e-12 PD=1.054e-05 PS=1.054e-05 $X=7700 $Y=0 $dt=1
M6 3 2 1 4 pe3 L=1e-06 W=1e-05 AD=2.7e-12 AS=2.7e-12 PD=1.054e-05 PS=1.054e-05 $X=9240 $Y=0 $dt=1
M7 1 2 3 4 pe3 L=1e-06 W=1e-05 AD=2.7e-12 AS=2.7e-12 PD=1.054e-05 PS=1.054e-05 $X=10780 $Y=0 $dt=1
M8 3 2 1 4 pe3 L=1e-06 W=1e-05 AD=2.7e-12 AS=2.7e-12 PD=1.054e-05 PS=1.054e-05 $X=12320 $Y=0 $dt=1
M9 1 2 3 4 pe3 L=1e-06 W=1e-05 AD=4.8e-12 AS=2.7e-12 PD=2.096e-05 PS=1.054e-05 $X=13860 $Y=0 $dt=1
D10 5 4 p_dnw3 AREA=2.15633e-10 PJ=0 perimeter=0 $X=-1510 $Y=-1030 $dt=8
.ends pe3_CDNS_724654214590

* +++++++++++++++++++++++++++++++++++++++++++++++++++++++++ *
* Sub cell: ne3_CDNS_724654214591                           *
* +++++++++++++++++++++++++++++++++++++++++++++++++++++++++ *
.subckt ne3_CDNS_724654214591 1 2 3
** N=3 EP=3 FDC=1
M0 3 2 1 1 ne3 L=5e-06 W=1e-05 AD=4.8e-12 AS=4.8e-12 PD=2.096e-05 PS=2.096e-05 $X=0 $Y=0 $dt=0
.ends ne3_CDNS_724654214591

* +++++++++++++++++++++++++++++++++++++++++++++++++++++++++ *
* Sub cell: pe3_CDNS_724654214592                           *
* +++++++++++++++++++++++++++++++++++++++++++++++++++++++++ *
.subckt pe3_CDNS_724654214592 1 2 3 4 5
** N=5 EP=5 FDC=13
M0 3 2 1 4 pe3 L=1e-06 W=1e-05 AD=2.7e-12 AS=4.8e-12 PD=1.054e-05 PS=2.096e-05 $X=0 $Y=0 $dt=1
M1 1 2 3 4 pe3 L=1e-06 W=1e-05 AD=2.7e-12 AS=2.7e-12 PD=1.054e-05 PS=1.054e-05 $X=1540 $Y=0 $dt=1
M2 3 2 1 4 pe3 L=1e-06 W=1e-05 AD=2.7e-12 AS=2.7e-12 PD=1.054e-05 PS=1.054e-05 $X=3080 $Y=0 $dt=1
M3 1 2 3 4 pe3 L=1e-06 W=1e-05 AD=2.7e-12 AS=2.7e-12 PD=1.054e-05 PS=1.054e-05 $X=4620 $Y=0 $dt=1
M4 3 2 1 4 pe3 L=1e-06 W=1e-05 AD=2.7e-12 AS=2.7e-12 PD=1.054e-05 PS=1.054e-05 $X=6160 $Y=0 $dt=1
M5 1 2 3 4 pe3 L=1e-06 W=1e-05 AD=2.7e-12 AS=2.7e-12 PD=1.054e-05 PS=1.054e-05 $X=7700 $Y=0 $dt=1
M6 3 2 1 4 pe3 L=1e-06 W=1e-05 AD=2.7e-12 AS=2.7e-12 PD=1.054e-05 PS=1.054e-05 $X=9240 $Y=0 $dt=1
M7 1 2 3 4 pe3 L=1e-06 W=1e-05 AD=2.7e-12 AS=2.7e-12 PD=1.054e-05 PS=1.054e-05 $X=10780 $Y=0 $dt=1
M8 3 2 1 4 pe3 L=1e-06 W=1e-05 AD=2.7e-12 AS=2.7e-12 PD=1.054e-05 PS=1.054e-05 $X=12320 $Y=0 $dt=1
M9 1 2 3 4 pe3 L=1e-06 W=1e-05 AD=2.7e-12 AS=2.7e-12 PD=1.054e-05 PS=1.054e-05 $X=13860 $Y=0 $dt=1
M10 3 2 1 4 pe3 L=1e-06 W=1e-05 AD=2.7e-12 AS=2.7e-12 PD=1.054e-05 PS=1.054e-05 $X=15400 $Y=0 $dt=1
M11 1 2 3 4 pe3 L=1e-06 W=1e-05 AD=4.8e-12 AS=2.7e-12 PD=2.096e-05 PS=1.054e-05 $X=16940 $Y=0 $dt=1
D12 5 4 p_dnw3 AREA=2.52778e-10 PJ=0 perimeter=0 $X=-1510 $Y=-1030 $dt=8
.ends pe3_CDNS_724654214592

* +++++++++++++++++++++++++++++++++++++++++++++++++++++++++ *
* Sub cell: pe3_CDNS_724654214593                           *
* +++++++++++++++++++++++++++++++++++++++++++++++++++++++++ *
.subckt pe3_CDNS_724654214593 1 2 3 4
** N=4 EP=4 FDC=3
M0 2 2 1 3 pe3 L=2e-06 W=1e-05 AD=2.7e-12 AS=4.8e-12 PD=1.054e-05 PS=2.096e-05 $X=0 $Y=0 $dt=1
M1 1 2 2 3 pe3 L=2e-06 W=1e-05 AD=4.8e-12 AS=2.7e-12 PD=2.096e-05 PS=1.054e-05 $X=2540 $Y=0 $dt=1
D2 4 3 p_dnw3 AREA=9.11736e-11 PJ=0 perimeter=0 $X=-1510 $Y=-1030 $dt=8
.ends pe3_CDNS_724654214593

* +++++++++++++++++++++++++++++++++++++++++++++++++++++++++ *
* Sub cell: rpp1k1_3_CDNS_724654214594                      *
* +++++++++++++++++++++++++++++++++++++++++++++++++++++++++ *
.subckt rpp1k1_3_CDNS_724654214594 1 2 3
** N=3 EP=3 FDC=1
R0 2 1 L=0.0005141 W=4e-06 $[rpp1k1_3] $SUB=3 $X=-4220 $Y=0 $dt=9
.ends rpp1k1_3_CDNS_724654214594

* +++++++++++++++++++++++++++++++++++++++++++++++++++++++++ *
* Sub cell: ne3_CDNS_724654214595                           *
* +++++++++++++++++++++++++++++++++++++++++++++++++++++++++ *
.subckt ne3_CDNS_724654214595 1 2 3 4
** N=4 EP=4 FDC=8
M0 3 2 1 4 ne3 L=2e-06 W=1e-05 AD=2.7e-12 AS=4.8e-12 PD=1.054e-05 PS=2.096e-05 $X=0 $Y=0 $dt=0
M1 1 2 3 4 ne3 L=2e-06 W=1e-05 AD=2.7e-12 AS=2.7e-12 PD=1.054e-05 PS=1.054e-05 $X=2540 $Y=0 $dt=0
M2 3 2 1 4 ne3 L=2e-06 W=1e-05 AD=2.7e-12 AS=2.7e-12 PD=1.054e-05 PS=1.054e-05 $X=5080 $Y=0 $dt=0
M3 1 2 3 4 ne3 L=2e-06 W=1e-05 AD=2.7e-12 AS=2.7e-12 PD=1.054e-05 PS=1.054e-05 $X=7620 $Y=0 $dt=0
M4 3 2 1 4 ne3 L=2e-06 W=1e-05 AD=2.7e-12 AS=2.7e-12 PD=1.054e-05 PS=1.054e-05 $X=10160 $Y=0 $dt=0
M5 1 2 3 4 ne3 L=2e-06 W=1e-05 AD=2.7e-12 AS=2.7e-12 PD=1.054e-05 PS=1.054e-05 $X=12700 $Y=0 $dt=0
M6 3 2 1 4 ne3 L=2e-06 W=1e-05 AD=2.7e-12 AS=2.7e-12 PD=1.054e-05 PS=1.054e-05 $X=15240 $Y=0 $dt=0
M7 1 2 3 4 ne3 L=2e-06 W=1e-05 AD=4.8e-12 AS=2.7e-12 PD=2.096e-05 PS=1.054e-05 $X=17780 $Y=0 $dt=0
.ends ne3_CDNS_724654214595

* +++++++++++++++++++++++++++++++++++++++++++++++++++++++++ *
* Sub cell: pe3_CDNS_724654214599                           *
* +++++++++++++++++++++++++++++++++++++++++++++++++++++++++ *
.subckt pe3_CDNS_724654214599 1 2 3 4
*.DEVICECLIMB
** N=4 EP=4 FDC=1
M0 3 2 1 1 pe3 L=2e-06 W=1e-05 AD=4.8e-12 AS=4.8e-12 PD=2.096e-05 PS=2.096e-05 $X=0 $Y=0 $dt=1
.ends pe3_CDNS_724654214599

* +++++++++++++++++++++++++++++++++++++++++++++++++++++++++ *
* Sub cell: pe3_CDNS_7246542145910                          *
* +++++++++++++++++++++++++++++++++++++++++++++++++++++++++ *
.subckt pe3_CDNS_7246542145910 1 2 3 4
*.DEVICECLIMB
** N=4 EP=4 FDC=1
M0 3 2 1 1 pe3 L=1e-05 W=1e-05 AD=4.8e-12 AS=4.8e-12 PD=2.096e-05 PS=2.096e-05 $X=0 $Y=0 $dt=1
.ends pe3_CDNS_7246542145910

* +++++++++++++++++++++++++++++++++++++++++++++++++++++++++ *
* Sub cell: ne3i_6_CDNS_724654214598                        *
* +++++++++++++++++++++++++++++++++++++++++++++++++++++++++ *
.subckt ne3i_6_CDNS_724654214598 1 2 3 4 5
*.DEVICECLIMB
** N=5 EP=5 FDC=1
X0 1 2 3 1 4 5 NE3I_6 w=1e-05 l=2e-06 as=4.8e-12 ad=4.8e-12 ps=2.096e-05 pd=2.096e-05 $X=0 $Y=0 $dt=2
.ends ne3i_6_CDNS_724654214598

* +++++++++++++++++++++++++++++++++++++++++++++++++++++++++ *
* Sub cell: MASCO__A3                                       *
* +++++++++++++++++++++++++++++++++++++++++++++++++++++++++ *
.subckt MASCO__A3 1 2 3 4 5 6 7
*.DEVICECLIMB
** N=7 EP=7 FDC=2
X0 1 4 5 6 7 ne3i_6_CDNS_724654214598 $T=4060 14570 1 0 $X=0 $Y=0
X1 1 2 3 6 7 ne3i_6_CDNS_724654214598 $T=7460 14570 1 0 $X=3400 $Y=0
.ends MASCO__A3

* +++++++++++++++++++++++++++++++++++++++++++++++++++++++++ *
* Sub cell: MASCO__A4                                       *
* +++++++++++++++++++++++++++++++++++++++++++++++++++++++++ *
.subckt MASCO__A4 1 2 3 4 5 6 7
*.DEVICECLIMB
** N=7 EP=7 FDC=2
X0 1 4 5 6 7 ne3i_6_CDNS_724654214598 $T=4060 4450 0 0 $X=0 $Y=0
X1 1 2 3 6 7 ne3i_6_CDNS_724654214598 $T=7460 4450 0 0 $X=3400 $Y=0
.ends MASCO__A4

* +++++++++++++++++++++++++++++++++++++++++++++++++++++++++ *
* Sub cell: MASCO__B5                                       *
* +++++++++++++++++++++++++++++++++++++++++++++++++++++++++ *
.subckt MASCO__B5 1 2 3 4 5 6 7 8 9 10
+ 11
*.DEVICECLIMB
** N=11 EP=11 FDC=4
X0 1 10 6 5 3 2 11 MASCO__A3 $T=0 14680 0 0 $X=0 $Y=14680
X1 1 8 7 9 4 2 11 MASCO__A4 $T=0 0 0 0 $X=0 $Y=0
.ends MASCO__B5

* +++++++++++++++++++++++++++++++++++++++++++++++++++++++++ *
* Sub cell: ref_bias                                        *
* +++++++++++++++++++++++++++++++++++++++++++++++++++++++++ *
.subckt ref_bias GNDA VDDA BIAS RES_BIAS OUT2 OUT1 VREF
** N=18 EP=7 FDC=187
X0 8 VIA2_C_CDNS_724654214590 $T=152805 186425 0 0 $X=152055 $Y=185675
X1 OUT2 VIA2_C_CDNS_724654214590 $T=187300 141530 0 0 $X=186550 $Y=140780
X2 9 VIA2_C_CDNS_724654214593 $T=13870 9200 0 0 $X=13160 $Y=8800
X3 9 VIA2_C_CDNS_724654214593 $T=13870 25290 0 0 $X=13160 $Y=24890
X4 8 VIA2_C_CDNS_724654214593 $T=64530 11760 0 0 $X=63820 $Y=11360
X5 8 VIA2_C_CDNS_724654214593 $T=64530 27850 0 0 $X=63820 $Y=27450
X6 10 VIA2_C_CDNS_724654214593 $T=66310 10480 0 0 $X=65600 $Y=10080
X7 10 VIA2_C_CDNS_724654214593 $T=66310 26570 0 0 $X=65600 $Y=26170
X8 GNDA VIA1_C_CDNS_724654214594 $T=17710 13040 0 0 $X=17570 $Y=12590
X9 GNDA VIA1_C_CDNS_724654214594 $T=17710 29130 0 0 $X=17570 $Y=28680
X10 GNDA VIA1_C_CDNS_724654214594 $T=20480 29130 0 0 $X=20340 $Y=28680
X11 GNDA VIA1_C_CDNS_724654214594 $T=20480 42300 0 0 $X=20340 $Y=41850
X12 GNDA VIA1_C_CDNS_724654214594 $T=23250 13040 0 0 $X=23110 $Y=12590
X13 GNDA VIA1_C_CDNS_724654214594 $T=23250 29130 0 0 $X=23110 $Y=28680
X14 GNDA VIA1_C_CDNS_724654214594 $T=23950 13040 0 0 $X=23810 $Y=12590
X15 GNDA VIA1_C_CDNS_724654214594 $T=23950 29130 0 0 $X=23810 $Y=28680
X16 9 VIA1_C_CDNS_724654214594 $T=26720 25290 0 0 $X=26580 $Y=24840
X17 10 VIA1_C_CDNS_724654214594 $T=29490 10480 0 0 $X=29350 $Y=10030
X18 9 VIA1_C_CDNS_724654214594 $T=29490 25290 0 0 $X=29350 $Y=24840
X19 GNDA VIA1_C_CDNS_724654214594 $T=30190 13040 0 0 $X=30050 $Y=12590
X20 GNDA VIA1_C_CDNS_724654214594 $T=30190 29130 0 0 $X=30050 $Y=28680
X21 9 VIA1_C_CDNS_724654214594 $T=32960 25290 0 0 $X=32820 $Y=24840
X22 9 VIA1_C_CDNS_724654214594 $T=35730 9200 0 0 $X=35590 $Y=8750
X23 10 VIA1_C_CDNS_724654214594 $T=35730 26570 0 0 $X=35590 $Y=26120
X24 GNDA VIA1_C_CDNS_724654214594 $T=36430 13040 0 0 $X=36290 $Y=12590
X25 GNDA VIA1_C_CDNS_724654214594 $T=36430 29130 0 0 $X=36290 $Y=28680
X26 9 VIA1_C_CDNS_724654214594 $T=39200 25290 0 0 $X=39060 $Y=24840
X27 8 VIA1_C_CDNS_724654214594 $T=41970 11760 0 0 $X=41830 $Y=11310
X28 9 VIA1_C_CDNS_724654214594 $T=41970 25290 0 0 $X=41830 $Y=24840
X29 GNDA VIA1_C_CDNS_724654214594 $T=42670 13040 0 0 $X=42530 $Y=12590
X30 GNDA VIA1_C_CDNS_724654214594 $T=42670 29130 0 0 $X=42530 $Y=28680
X31 9 VIA1_C_CDNS_724654214594 $T=45440 25290 0 0 $X=45300 $Y=24840
X32 9 VIA1_C_CDNS_724654214594 $T=48210 9200 0 0 $X=48070 $Y=8750
X33 10 VIA1_C_CDNS_724654214594 $T=48210 26570 0 0 $X=48070 $Y=26120
X34 GNDA VIA1_C_CDNS_724654214594 $T=48910 13040 0 0 $X=48770 $Y=12590
X35 GNDA VIA1_C_CDNS_724654214594 $T=48910 29130 0 0 $X=48770 $Y=28680
X36 9 VIA1_C_CDNS_724654214594 $T=51680 25290 0 0 $X=51540 $Y=24840
X37 GNDA VIA1_C_CDNS_724654214594 $T=51680 42300 0 0 $X=51540 $Y=41850
X38 10 VIA1_C_CDNS_724654214594 $T=54450 10480 0 0 $X=54310 $Y=10030
X39 GNDA VIA1_C_CDNS_724654214594 $T=54450 29130 0 0 $X=54310 $Y=28680
X40 GNDA VIA1_C_CDNS_724654214594 $T=55150 13040 0 0 $X=55010 $Y=12590
X41 GNDA VIA1_C_CDNS_724654214594 $T=55150 29130 0 0 $X=55010 $Y=28680
X42 GNDA VIA1_C_CDNS_724654214594 $T=57920 29130 0 0 $X=57780 $Y=28680
X43 GNDA VIA1_C_CDNS_724654214594 $T=57920 42300 0 0 $X=57780 $Y=41850
X44 GNDA VIA1_C_CDNS_724654214594 $T=60690 13040 0 0 $X=60550 $Y=12590
X45 GNDA VIA1_C_CDNS_724654214594 $T=60690 29130 0 0 $X=60550 $Y=28680
X46 GNDA VIA2_C_CDNS_724654214595 $T=15900 13040 0 0 $X=14930 $Y=12640
X47 GNDA VIA2_C_CDNS_724654214595 $T=15900 29130 0 0 $X=14930 $Y=28730
X48 GNDA VIA2_C_CDNS_724654214595 $T=15900 42300 0 0 $X=14930 $Y=41900
X49 GNDA VIA2_C_CDNS_724654214595 $T=62500 13040 0 0 $X=61530 $Y=12640
X50 GNDA VIA2_C_CDNS_724654214595 $T=62500 29130 0 0 $X=61530 $Y=28730
X51 GNDA VIA2_C_CDNS_724654214595 $T=62500 42300 0 0 $X=61530 $Y=41900
X52 9 VIA1_C_CDNS_724654214597 $T=26720 41270 0 0 $X=26580 $Y=41080
X53 9 VIA1_C_CDNS_724654214597 $T=32960 41270 0 0 $X=32820 $Y=41080
X54 9 VIA1_C_CDNS_724654214597 $T=39200 41270 0 0 $X=39060 $Y=41080
X55 9 VIA1_C_CDNS_724654214597 $T=45440 41270 0 0 $X=45300 $Y=41080
X56 9 VIA1_C_CDNS_724654214598 $T=17275 53125 0 0 $X=16875 $Y=52415
X57 BIAS VIA1_C_CDNS_724654214598 $T=19815 51345 0 0 $X=19415 $Y=50635
X58 9 VIA1_C_CDNS_724654214598 $T=22355 53125 0 0 $X=21955 $Y=52415
X59 BIAS VIA1_C_CDNS_724654214598 $T=24895 51345 0 0 $X=24495 $Y=50635
X60 9 VIA1_C_CDNS_724654214598 $T=27435 53125 0 0 $X=27035 $Y=52415
X61 BIAS VIA1_C_CDNS_724654214598 $T=29975 51345 0 0 $X=29575 $Y=50635
X62 9 VIA1_C_CDNS_724654214598 $T=32515 53125 0 0 $X=32115 $Y=52415
X63 BIAS VIA1_C_CDNS_724654214598 $T=35055 51345 0 0 $X=34655 $Y=50635
X64 9 VIA1_C_CDNS_724654214598 $T=37595 53125 0 0 $X=37195 $Y=52415
X65 10 VIA1_C_CDNS_724654214598 $T=42210 52905 0 0 $X=41810 $Y=52195
X66 11 VIA1_C_CDNS_724654214598 $T=44750 51125 0 0 $X=44350 $Y=50415
X67 10 VIA1_C_CDNS_724654214598 $T=47290 52905 0 0 $X=46890 $Y=52195
X68 11 VIA1_C_CDNS_724654214598 $T=49830 51125 0 0 $X=49430 $Y=50415
X69 10 VIA1_C_CDNS_724654214598 $T=52370 52905 0 0 $X=51970 $Y=52195
X70 11 VIA1_C_CDNS_724654214598 $T=54910 51125 0 0 $X=54510 $Y=50415
X71 10 VIA1_C_CDNS_724654214598 $T=57450 52905 0 0 $X=57050 $Y=52195
X72 11 VIA1_C_CDNS_724654214598 $T=59990 51125 0 0 $X=59590 $Y=50415
X73 10 VIA1_C_CDNS_724654214598 $T=62530 52905 0 0 $X=62130 $Y=52195
X74 VDDA VIA1_C_CDNS_724654214598 $T=137790 186425 0 0 $X=137390 $Y=185715
X75 12 VIA1_C_CDNS_724654214598 $T=140330 188205 0 0 $X=139930 $Y=187495
X76 VDDA VIA1_C_CDNS_724654214598 $T=142870 186425 0 0 $X=142470 $Y=185715
X77 12 VIA1_C_CDNS_724654214598 $T=147350 188205 0 0 $X=146950 $Y=187495
X78 8 VIA1_C_CDNS_724654214598 $T=149890 186425 0 0 $X=149490 $Y=185715
X79 12 VIA1_C_CDNS_724654214598 $T=152430 188205 0 0 $X=152030 $Y=187495
X80 13 VIA1_C_CDNS_724654214598 $T=162070 148400 0 0 $X=161670 $Y=147690
X81 RES_BIAS VIA1_C_CDNS_724654214598 $T=163610 146620 0 0 $X=163210 $Y=145910
X82 13 VIA1_C_CDNS_724654214598 $T=165150 148400 0 0 $X=164750 $Y=147690
X83 VDDA VIA1_C_CDNS_724654214598 $T=165405 173875 0 0 $X=165005 $Y=173165
X84 VDDA VIA1_C_CDNS_724654214598 $T=165405 193895 0 0 $X=165005 $Y=193185
X85 VDDA VIA1_C_CDNS_724654214598 $T=166675 193895 0 0 $X=166275 $Y=193185
X86 VDDA VIA1_C_CDNS_724654214598 $T=166675 208575 0 0 $X=166275 $Y=207865
X87 RES_BIAS VIA1_C_CDNS_724654214598 $T=166690 146620 0 0 $X=166290 $Y=145910
X88 VDDA VIA1_C_CDNS_724654214598 $T=167715 173875 0 0 $X=167315 $Y=173165
X89 VDDA VIA1_C_CDNS_724654214598 $T=167715 193895 0 0 $X=167315 $Y=193185
X90 13 VIA1_C_CDNS_724654214598 $T=168230 148400 0 0 $X=167830 $Y=147690
X91 VDDA VIA1_C_CDNS_724654214598 $T=168875 173875 0 0 $X=168475 $Y=173165
X92 VDDA VIA1_C_CDNS_724654214598 $T=168875 193895 0 0 $X=168475 $Y=193185
X93 RES_BIAS VIA1_C_CDNS_724654214598 $T=169770 146620 0 0 $X=169370 $Y=145910
X94 14 VIA1_C_CDNS_724654214598 $T=170955 170315 0 0 $X=170555 $Y=169605
X95 15 VIA1_C_CDNS_724654214598 $T=170955 188555 0 0 $X=170555 $Y=187845
X96 13 VIA1_C_CDNS_724654214598 $T=171310 148400 0 0 $X=170910 $Y=147690
X97 VDDA VIA1_C_CDNS_724654214598 $T=172685 173875 0 0 $X=172285 $Y=173165
X98 VDDA VIA1_C_CDNS_724654214598 $T=172685 193895 0 0 $X=172285 $Y=193185
X99 RES_BIAS VIA1_C_CDNS_724654214598 $T=172850 146620 0 0 $X=172450 $Y=145910
X100 15 VIA1_C_CDNS_724654214598 $T=174195 168535 0 0 $X=173795 $Y=167825
X101 13 VIA1_C_CDNS_724654214598 $T=174195 192115 0 0 $X=173795 $Y=191405
X102 13 VIA1_C_CDNS_724654214598 $T=174390 148400 0 0 $X=173990 $Y=147690
X103 VDDA VIA1_C_CDNS_724654214598 $T=175925 173875 0 0 $X=175525 $Y=173165
X104 VDDA VIA1_C_CDNS_724654214598 $T=175925 193895 0 0 $X=175525 $Y=193185
X105 RES_BIAS VIA1_C_CDNS_724654214598 $T=175930 146620 0 0 $X=175530 $Y=145910
X106 13 VIA1_C_CDNS_724654214598 $T=177435 172095 0 0 $X=177035 $Y=171385
X107 14 VIA1_C_CDNS_724654214598 $T=177435 190335 0 0 $X=177035 $Y=189625
X108 13 VIA1_C_CDNS_724654214598 $T=177470 148400 0 0 $X=177070 $Y=147690
X109 RES_BIAS VIA1_C_CDNS_724654214598 $T=179010 146620 0 0 $X=178610 $Y=145910
X110 VDDA VIA1_C_CDNS_724654214598 $T=179165 173875 0 0 $X=178765 $Y=173165
X111 VDDA VIA1_C_CDNS_724654214598 $T=179165 193895 0 0 $X=178765 $Y=193185
X112 13 VIA1_C_CDNS_724654214598 $T=180550 148400 0 0 $X=180150 $Y=147690
X113 14 VIA1_C_CDNS_724654214598 $T=180675 170315 0 0 $X=180275 $Y=169605
X114 15 VIA1_C_CDNS_724654214598 $T=180675 188555 0 0 $X=180275 $Y=187845
X115 VDDA VIA1_C_CDNS_724654214598 $T=182405 173875 0 0 $X=182005 $Y=173165
X116 VDDA VIA1_C_CDNS_724654214598 $T=182405 193895 0 0 $X=182005 $Y=193185
X117 13 VIA1_C_CDNS_724654214598 $T=183915 172095 0 0 $X=183515 $Y=171385
X118 15 VIA1_C_CDNS_724654214598 $T=183915 188555 0 0 $X=183515 $Y=187845
X119 VDDA VIA1_C_CDNS_724654214598 $T=185645 173875 0 0 $X=185245 $Y=173165
X120 VDDA VIA1_C_CDNS_724654214598 $T=185645 193895 0 0 $X=185245 $Y=193185
X121 15 VIA1_C_CDNS_724654214598 $T=187155 168535 0 0 $X=186755 $Y=167825
X122 13 VIA1_C_CDNS_724654214598 $T=187155 192115 0 0 $X=186755 $Y=191405
X123 VDDA VIA1_C_CDNS_724654214598 $T=188885 173875 0 0 $X=188485 $Y=173165
X124 VDDA VIA1_C_CDNS_724654214598 $T=188885 193895 0 0 $X=188485 $Y=193185
X125 14 VIA1_C_CDNS_724654214598 $T=189010 148400 0 0 $X=188610 $Y=147690
X126 13 VIA1_C_CDNS_724654214598 $T=190395 172095 0 0 $X=189995 $Y=171385
X127 14 VIA1_C_CDNS_724654214598 $T=190395 190335 0 0 $X=189995 $Y=189625
X128 OUT1 VIA1_C_CDNS_724654214598 $T=190550 146620 0 0 $X=190150 $Y=145910
X129 14 VIA1_C_CDNS_724654214598 $T=192090 148400 0 0 $X=191690 $Y=147690
X130 VDDA VIA1_C_CDNS_724654214598 $T=192125 173875 0 0 $X=191725 $Y=173165
X131 VDDA VIA1_C_CDNS_724654214598 $T=192125 193895 0 0 $X=191725 $Y=193185
X132 OUT1 VIA1_C_CDNS_724654214598 $T=193630 146620 0 0 $X=193230 $Y=145910
X133 14 VIA1_C_CDNS_724654214598 $T=193635 170315 0 0 $X=193235 $Y=169605
X134 13 VIA1_C_CDNS_724654214598 $T=193635 192115 0 0 $X=193235 $Y=191405
X135 14 VIA1_C_CDNS_724654214598 $T=195170 148400 0 0 $X=194770 $Y=147690
X136 VDDA VIA1_C_CDNS_724654214598 $T=195365 173875 0 0 $X=194965 $Y=173165
X137 VDDA VIA1_C_CDNS_724654214598 $T=195365 193895 0 0 $X=194965 $Y=193185
X138 OUT1 VIA1_C_CDNS_724654214598 $T=196710 146620 0 0 $X=196310 $Y=145910
X139 13 VIA1_C_CDNS_724654214598 $T=196875 172095 0 0 $X=196475 $Y=171385
X140 15 VIA1_C_CDNS_724654214598 $T=196875 188555 0 0 $X=196475 $Y=187845
X141 14 VIA1_C_CDNS_724654214598 $T=198250 148400 0 0 $X=197850 $Y=147690
X142 VDDA VIA1_C_CDNS_724654214598 $T=198605 173875 0 0 $X=198205 $Y=173165
X143 VDDA VIA1_C_CDNS_724654214598 $T=198605 193895 0 0 $X=198205 $Y=193185
X144 OUT1 VIA1_C_CDNS_724654214598 $T=199790 146620 0 0 $X=199390 $Y=145910
X145 15 VIA1_C_CDNS_724654214598 $T=200115 168535 0 0 $X=199715 $Y=167825
X146 13 VIA1_C_CDNS_724654214598 $T=200115 192115 0 0 $X=199715 $Y=191405
X147 14 VIA1_C_CDNS_724654214598 $T=201330 148400 0 0 $X=200930 $Y=147690
X148 VDDA VIA1_C_CDNS_724654214598 $T=201845 173875 0 0 $X=201445 $Y=173165
X149 VDDA VIA1_C_CDNS_724654214598 $T=201845 193895 0 0 $X=201445 $Y=193185
X150 OUT1 VIA1_C_CDNS_724654214598 $T=202870 146620 0 0 $X=202470 $Y=145910
X151 13 VIA1_C_CDNS_724654214598 $T=203355 172095 0 0 $X=202955 $Y=171385
X152 14 VIA1_C_CDNS_724654214598 $T=203355 190335 0 0 $X=202955 $Y=189625
X153 14 VIA1_C_CDNS_724654214598 $T=204410 148400 0 0 $X=204010 $Y=147690
X154 VDDA VIA1_C_CDNS_724654214598 $T=205085 173875 0 0 $X=204685 $Y=173165
X155 VDDA VIA1_C_CDNS_724654214598 $T=205085 193895 0 0 $X=204685 $Y=193185
X156 14 VIA1_C_CDNS_724654214598 $T=206595 170315 0 0 $X=206195 $Y=169605
X157 13 VIA1_C_CDNS_724654214598 $T=206595 192115 0 0 $X=206195 $Y=191405
X158 VDDA VIA1_C_CDNS_724654214598 $T=208325 173875 0 0 $X=207925 $Y=173165
X159 VDDA VIA1_C_CDNS_724654214598 $T=208325 193895 0 0 $X=207925 $Y=193185
X160 14 VIA1_C_CDNS_724654214598 $T=209835 170315 0 0 $X=209435 $Y=169605
X161 15 VIA1_C_CDNS_724654214598 $T=209835 188555 0 0 $X=209435 $Y=187845
X162 VDDA VIA1_C_CDNS_724654214598 $T=211565 173875 0 0 $X=211165 $Y=173165
X163 VDDA VIA1_C_CDNS_724654214598 $T=211565 193895 0 0 $X=211165 $Y=193185
X164 15 VIA1_C_CDNS_724654214598 $T=212920 148400 0 0 $X=212520 $Y=147690
X165 15 VIA1_C_CDNS_724654214598 $T=213075 168535 0 0 $X=212675 $Y=167825
X166 13 VIA1_C_CDNS_724654214598 $T=213075 192115 0 0 $X=212675 $Y=191405
X167 OUT2 VIA1_C_CDNS_724654214598 $T=214460 146620 0 0 $X=214060 $Y=145910
X168 VDDA VIA1_C_CDNS_724654214598 $T=214805 173875 0 0 $X=214405 $Y=173165
X169 VDDA VIA1_C_CDNS_724654214598 $T=214805 193895 0 0 $X=214405 $Y=193185
X170 15 VIA1_C_CDNS_724654214598 $T=216000 148400 0 0 $X=215600 $Y=147690
X171 13 VIA1_C_CDNS_724654214598 $T=216315 172095 0 0 $X=215915 $Y=171385
X172 14 VIA1_C_CDNS_724654214598 $T=216315 190335 0 0 $X=215915 $Y=189625
X173 OUT2 VIA1_C_CDNS_724654214598 $T=217540 146620 0 0 $X=217140 $Y=145910
X174 VDDA VIA1_C_CDNS_724654214598 $T=218045 173875 0 0 $X=217645 $Y=173165