* +++++++++++++++++++++++++++++++++++++++++++++++++++++++++ *
* CDL Netlist:                                              *
*                                                           *
* Cell Name  : pulse_generator                              *
* Netlisted  : Mon Aug 26 08:47:03 2024                     *
* PVS Version: 23.11-s036 Wed Jan 17 18:11:41 PST 2024      *
* +++++++++++++++++++++++++++++++++++++++++++++++++++++++++ *
*.LDD
*.DEVTMPLT 0 LDDN(nedia) nedia2_d dnwtrm(D) p1trm(G) ndiff(S) bulk(B)
*.DEVTMPLT 1 MN(ne3) nem ndiff(D) p1trm(G) ndiff(S) bulk(B)
*.DEVTMPLT 2 MP(pe3) pem pdiff(D) p1trm(G) pdiff(S) nwtrm(B)
*.DEVTMPLT 3 NE3I_6() nemi_6 ndiff(D) p1trm(G) ndiff(S) pwitrm(B) dnwtrm(NW) bulk(SB)
*.DEVTMPLT 4 MOSVC3() mosvcm p1trm(G) nwtrm(NW) bulk(SB)
*.DEVTMPLT 5 R(s_res) s_res bulk(POS) bulk(NEG)
*.DEVTMPLT 6 D(p_dnw) p_dnw bulk(POS) nwtrm(NEG)
*.DEVTMPLT 7 D(p_ddnw) p_ddnw bulk(POS) dnwtrm(NEG)
*.DEVTMPLT 8 D(p_dipdnwmv) p_dipwmv pwitrm(POS) dnwtrm(NEG)
*.DEVTMPLT 9 D(p_dnw3) p_dnwm bulk(POS) nwtrm(NEG)
*.DEVTMPLT 10 R(rpp1k1_3) rpp1k1_s p1trm(POS) p1trm(NEG) bulk(SUB)
*.DEVTMPLT 11 R(rpp1k1_3) rpp1k1_n p1trm(POS) p1trm(NEG) nwtrm(SUB)
*.DEVTMPLT 12 C(cmm5t) cmim capm(POS) m4trm(NEG)

* +++++++++++++++++++++++++++++++++++++++++++++++++++++++++ *
* Sub cell: VIA3_C_CDNS_724654816050                        *
* +++++++++++++++++++++++++++++++++++++++++++++++++++++++++ *
.subckt VIA3_C_CDNS_724654816050 1
** N=1 EP=1 FDC=0
.ends VIA3_C_CDNS_724654816050

* +++++++++++++++++++++++++++++++++++++++++++++++++++++++++ *
* Sub cell: VIA3_C_CDNS_724654816051                        *
* +++++++++++++++++++++++++++++++++++++++++++++++++++++++++ *
.subckt VIA3_C_CDNS_724654816051 1
** N=1 EP=1 FDC=0
.ends VIA3_C_CDNS_724654816051

* +++++++++++++++++++++++++++++++++++++++++++++++++++++++++ *
* Sub cell: VIA3_C_CDNS_724654816052                        *
* +++++++++++++++++++++++++++++++++++++++++++++++++++++++++ *
.subckt VIA3_C_CDNS_724654816052 1
** N=1 EP=1 FDC=0
.ends VIA3_C_CDNS_724654816052

* +++++++++++++++++++++++++++++++++++++++++++++++++++++++++ *
* Sub cell: VIA3_C_CDNS_724654816053                        *
* +++++++++++++++++++++++++++++++++++++++++++++++++++++++++ *
.subckt VIA3_C_CDNS_724654816053 1
** N=1 EP=1 FDC=0
.ends VIA3_C_CDNS_724654816053

* +++++++++++++++++++++++++++++++++++++++++++++++++++++++++ *
* Sub cell: VIA1_C_CDNS_724654816055                        *
* +++++++++++++++++++++++++++++++++++++++++++++++++++++++++ *
.subckt VIA1_C_CDNS_724654816055 1
** N=1 EP=1 FDC=0
.ends VIA1_C_CDNS_724654816055

* +++++++++++++++++++++++++++++++++++++++++++++++++++++++++ *
* Sub cell: VIA1_C_CDNS_724654816056                        *
* +++++++++++++++++++++++++++++++++++++++++++++++++++++++++ *
.subckt VIA1_C_CDNS_724654816056 1
** N=1 EP=1 FDC=0
.ends VIA1_C_CDNS_724654816056

* +++++++++++++++++++++++++++++++++++++++++++++++++++++++++ *
* Sub cell: VIA1_C_CDNS_724654816057                        *
* +++++++++++++++++++++++++++++++++++++++++++++++++++++++++ *
.subckt VIA1_C_CDNS_724654816057 1
** N=1 EP=1 FDC=0
.ends VIA1_C_CDNS_724654816057

* +++++++++++++++++++++++++++++++++++++++++++++++++++++++++ *
* Sub cell: VIA2_C_CDNS_724654816058                        *
* +++++++++++++++++++++++++++++++++++++++++++++++++++++++++ *
.subckt VIA2_C_CDNS_724654816058 1
** N=1 EP=1 FDC=0
.ends VIA2_C_CDNS_724654816058

* +++++++++++++++++++++++++++++++++++++++++++++++++++++++++ *
* Sub cell: VIA2_C_CDNS_724654816059                        *
* +++++++++++++++++++++++++++++++++++++++++++++++++++++++++ *
.subckt VIA2_C_CDNS_724654816059 1
** N=1 EP=1 FDC=0
.ends VIA2_C_CDNS_724654816059

* +++++++++++++++++++++++++++++++++++++++++++++++++++++++++ *
* Sub cell: VIA2_C_CDNS_7246548160510                       *
* +++++++++++++++++++++++++++++++++++++++++++++++++++++++++ *
.subckt VIA2_C_CDNS_7246548160510 1
** N=1 EP=1 FDC=0
.ends VIA2_C_CDNS_7246548160510

* +++++++++++++++++++++++++++++++++++++++++++++++++++++++++ *
* Sub cell: VIA1_C_CDNS_7246548160511                       *
* +++++++++++++++++++++++++++++++++++++++++++++++++++++++++ *
.subckt VIA1_C_CDNS_7246548160511 1
** N=1 EP=1 FDC=0
.ends VIA1_C_CDNS_7246548160511

* +++++++++++++++++++++++++++++++++++++++++++++++++++++++++ *
* Sub cell: VIA1_C_CDNS_7246548160512                       *
* +++++++++++++++++++++++++++++++++++++++++++++++++++++++++ *
.subckt VIA1_C_CDNS_7246548160512 1
** N=1 EP=1 FDC=0
.ends VIA1_C_CDNS_7246548160512

* +++++++++++++++++++++++++++++++++++++++++++++++++++++++++ *
* Sub cell: VIA1_C_CDNS_7246548160513                       *
* +++++++++++++++++++++++++++++++++++++++++++++++++++++++++ *
.subckt VIA1_C_CDNS_7246548160513 1
** N=1 EP=1 FDC=0
.ends VIA1_C_CDNS_7246548160513

* +++++++++++++++++++++++++++++++++++++++++++++++++++++++++ *
* Sub cell: VIA1_C_CDNS_7246548160514                       *
* +++++++++++++++++++++++++++++++++++++++++++++++++++++++++ *
.subckt VIA1_C_CDNS_7246548160514 1
** N=1 EP=1 FDC=0
.ends VIA1_C_CDNS_7246548160514

* +++++++++++++++++++++++++++++++++++++++++++++++++++++++++ *
* Sub cell: VIA1_C_CDNS_7246548160515                       *
* +++++++++++++++++++++++++++++++++++++++++++++++++++++++++ *
.subckt VIA1_C_CDNS_7246548160515 1
** N=1 EP=1 FDC=0
.ends VIA1_C_CDNS_7246548160515

* +++++++++++++++++++++++++++++++++++++++++++++++++++++++++ *
* Sub cell: ND_C_CDNS_7246548160516                         *
* +++++++++++++++++++++++++++++++++++++++++++++++++++++++++ *
.subckt ND_C_CDNS_7246548160516 1 2
** N=2 EP=2 FDC=0
.ends ND_C_CDNS_7246548160516

* +++++++++++++++++++++++++++++++++++++++++++++++++++++++++ *
* Sub cell: VIA2_C_CDNS_7246548160517                       *
* +++++++++++++++++++++++++++++++++++++++++++++++++++++++++ *
.subckt VIA2_C_CDNS_7246548160517 1
** N=1 EP=1 FDC=0
.ends VIA2_C_CDNS_7246548160517

* +++++++++++++++++++++++++++++++++++++++++++++++++++++++++ *
* Sub cell: VIA1_C_CDNS_7246548160518                       *
* +++++++++++++++++++++++++++++++++++++++++++++++++++++++++ *
.subckt VIA1_C_CDNS_7246548160518 1
** N=1 EP=1 FDC=0
.ends VIA1_C_CDNS_7246548160518

* +++++++++++++++++++++++++++++++++++++++++++++++++++++++++ *
* Sub cell: VIA1_C_CDNS_7246548160519                       *
* +++++++++++++++++++++++++++++++++++++++++++++++++++++++++ *
.subckt VIA1_C_CDNS_7246548160519 1
** N=1 EP=1 FDC=0
.ends VIA1_C_CDNS_7246548160519

* +++++++++++++++++++++++++++++++++++++++++++++++++++++++++ *
* Sub cell: VIA1_C_CDNS_7246548160521                       *
* +++++++++++++++++++++++++++++++++++++++++++++++++++++++++ *
.subckt VIA1_C_CDNS_7246548160521 1
** N=1 EP=1 FDC=0
.ends VIA1_C_CDNS_7246548160521

* +++++++++++++++++++++++++++++++++++++++++++++++++++++++++ *
* Sub cell: VIA2_C_CDNS_7246548160522                       *
* +++++++++++++++++++++++++++++++++++++++++++++++++++++++++ *
.subckt VIA2_C_CDNS_7246548160522 1
** N=1 EP=1 FDC=0
.ends VIA2_C_CDNS_7246548160522

* +++++++++++++++++++++++++++++++++++++++++++++++++++++++++ *
* Sub cell: VIA1_C_CDNS_7246548160523                       *
* +++++++++++++++++++++++++++++++++++++++++++++++++++++++++ *
.subckt VIA1_C_CDNS_7246548160523 1
** N=1 EP=1 FDC=0
.ends VIA1_C_CDNS_7246548160523

* +++++++++++++++++++++++++++++++++++++++++++++++++++++++++ *
* Sub cell: VIA1_C_CDNS_7246548160524                       *
* +++++++++++++++++++++++++++++++++++++++++++++++++++++++++ *
.subckt VIA1_C_CDNS_7246548160524 1
** N=1 EP=1 FDC=0
.ends VIA1_C_CDNS_7246548160524

* +++++++++++++++++++++++++++++++++++++++++++++++++++++++++ *
* Sub cell: VIA2_C_CDNS_7246548160525                       *
* +++++++++++++++++++++++++++++++++++++++++++++++++++++++++ *
.subckt VIA2_C_CDNS_7246548160525 1
** N=1 EP=1 FDC=0
.ends VIA2_C_CDNS_7246548160525

* +++++++++++++++++++++++++++++++++++++++++++++++++++++++++ *
* Sub cell: VIA2_C_CDNS_7246548160527                       *
* +++++++++++++++++++++++++++++++++++++++++++++++++++++++++ *
.subckt VIA2_C_CDNS_7246548160527 1 2
** N=2 EP=2 FDC=0
.ends VIA2_C_CDNS_7246548160527

* +++++++++++++++++++++++++++++++++++++++++++++++++++++++++ *
* Sub cell: VIA1_C_CDNS_7246548160528                       *
* +++++++++++++++++++++++++++++++++++++++++++++++++++++++++ *
.subckt VIA1_C_CDNS_7246548160528 1 2
** N=2 EP=2 FDC=0
.ends VIA1_C_CDNS_7246548160528

* +++++++++++++++++++++++++++++++++++++++++++++++++++++++++ *
* Sub cell: VIA2_C_CDNS_7246548160535                       *
* +++++++++++++++++++++++++++++++++++++++++++++++++++++++++ *
.subckt VIA2_C_CDNS_7246548160535 1
** N=1 EP=1 FDC=0
.ends VIA2_C_CDNS_7246548160535

* +++++++++++++++++++++++++++++++++++++++++++++++++++++++++ *
* Sub cell: VIA1_C_CDNS_7246548160536                       *
* +++++++++++++++++++++++++++++++++++++++++++++++++++++++++ *
.subckt VIA1_C_CDNS_7246548160536 1
** N=1 EP=1 FDC=0
.ends VIA1_C_CDNS_7246548160536

* +++++++++++++++++++++++++++++++++++++++++++++++++++++++++ *
* Sub cell: VIA3_C_CDNS_7246548160537                       *
* +++++++++++++++++++++++++++++++++++++++++++++++++++++++++ *
.subckt VIA3_C_CDNS_7246548160537 1
** N=1 EP=1 FDC=0
.ends VIA3_C_CDNS_7246548160537

* +++++++++++++++++++++++++++++++++++++++++++++++++++++++++ *
* Sub cell: VIA1_C_CDNS_7246548160539                       *
* +++++++++++++++++++++++++++++++++++++++++++++++++++++++++ *
.subckt VIA1_C_CDNS_7246548160539 1
** N=1 EP=1 FDC=0
.ends VIA1_C_CDNS_7246548160539

* +++++++++++++++++++++++++++++++++++++++++++++++++++++++++ *
* Sub cell: VIA2_C_CDNS_7246548160541                       *
* +++++++++++++++++++++++++++++++++++++++++++++++++++++++++ *
.subckt VIA2_C_CDNS_7246548160541 1
** N=1 EP=1 FDC=0
.ends VIA2_C_CDNS_7246548160541

* +++++++++++++++++++++++++++++++++++++++++++++++++++++++++ *
* Sub cell: VIA2_C_CDNS_7246548160543                       *
* +++++++++++++++++++++++++++++++++++++++++++++++++++++++++ *
.subckt VIA2_C_CDNS_7246548160543 1
** N=1 EP=1 FDC=0
.ends VIA2_C_CDNS_7246548160543

* +++++++++++++++++++++++++++++++++++++++++++++++++++++++++ *
* Sub cell: VIATP_C_CDNS_7246548160545                      *
* +++++++++++++++++++++++++++++++++++++++++++++++++++++++++ *
.subckt VIATP_C_CDNS_7246548160545 1
** N=1 EP=1 FDC=0
.ends VIATP_C_CDNS_7246548160545

* +++++++++++++++++++++++++++++++++++++++++++++++++++++++++ *
* Sub cell: VIATP_C_CDNS_7246548160549                      *
* +++++++++++++++++++++++++++++++++++++++++++++++++++++++++ *
.subckt VIATP_C_CDNS_7246548160549 1
** N=1 EP=1 FDC=0
.ends VIATP_C_CDNS_7246548160549

* +++++++++++++++++++++++++++++++++++++++++++++++++++++++++ *
* Sub cell: VIA2_C_CDNS_7246548160557                       *
* +++++++++++++++++++++++++++++++++++++++++++++++++++++++++ *
.subckt VIA2_C_CDNS_7246548160557 1
** N=1 EP=1 FDC=0
.ends VIA2_C_CDNS_7246548160557

* +++++++++++++++++++++++++++++++++++++++++++++++++++++++++ *
* Sub cell: ne3_CDNS_724654816050                           *
* +++++++++++++++++++++++++++++++++++++++++++++++++++++++++ *
.subckt ne3_CDNS_724654816050 1 2 3
** N=3 EP=3 FDC=4
M0 3 2 1 1 ne3 L=5e-07 W=5e-06 AD=1.35e-12 AS=2.4e-12 PD=5.54e-06 PS=1.096e-05 $X=0 $Y=0 $dt=1
M1 1 2 3 1 ne3 L=5e-07 W=5e-06 AD=1.35e-12 AS=1.35e-12 PD=5.54e-06 PS=5.54e-06 $X=1040 $Y=0 $dt=1
M2 3 2 1 1 ne3 L=5e-07 W=5e-06 AD=1.35e-12 AS=1.35e-12 PD=5.54e-06 PS=5.54e-06 $X=2080 $Y=0 $dt=1
M3 1 2 3 1 ne3 L=5e-07 W=5e-06 AD=2.4e-12 AS=1.35e-12 PD=1.096e-05 PS=5.54e-06 $X=3120 $Y=0 $dt=1
.ends ne3_CDNS_724654816050

* +++++++++++++++++++++++++++++++++++++++++++++++++++++++++ *
* Sub cell: nedia_CDNS_724654816051                         *
* +++++++++++++++++++++++++++++++++++++++++++++++++++++++++ *
.subckt nedia_CDNS_724654816051 1 2 3 4
** N=4 EP=4 FDC=1
X0 2 4 3 1 LDDN w=5e-05 l=1.25e-06 adio=1.08602e-09 pdio=0.00013535 extlay=1 $[nedia] $X=-680 $Y=-4850 $dt=0
.ends nedia_CDNS_724654816051

* +++++++++++++++++++++++++++++++++++++++++++++++++++++++++ *
* Sub cell: ne3_CDNS_724654816052                           *
* +++++++++++++++++++++++++++++++++++++++++++++++++++++++++ *
.subckt ne3_CDNS_724654816052 1 2 3
** N=3 EP=3 FDC=4
M0 3 2 1 1 ne3 L=3.5e-07 W=5e-06 AD=1.35e-12 AS=2.4e-12 PD=5.54e-06 PS=1.096e-05 $X=0 $Y=0 $dt=1
M1 1 2 3 1 ne3 L=3.5e-07 W=5e-06 AD=1.35e-12 AS=1.35e-12 PD=5.54e-06 PS=5.54e-06 $X=890 $Y=0 $dt=1
M2 3 2 1 1 ne3 L=3.5e-07 W=5e-06 AD=1.35e-12 AS=1.35e-12 PD=5.54e-06 PS=5.54e-06 $X=1780 $Y=0 $dt=1
M3 1 2 3 1 ne3 L=3.5e-07 W=5e-06 AD=2.4e-12 AS=1.35e-12 PD=1.096e-05 PS=5.54e-06 $X=2670 $Y=0 $dt=1
.ends ne3_CDNS_724654816052

* +++++++++++++++++++++++++++++++++++++++++++++++++++++++++ *
* Sub cell: rpp1k1_3_CDNS_724654816053                      *
* +++++++++++++++++++++++++++++++++++++++++++++++++++++++++ *
.subckt rpp1k1_3_CDNS_724654816053 1 2 3
** N=3 EP=3 FDC=1
R0 2 1 L=0.00010265 W=4e-06 $[rpp1k1_3] $SUB=3 $X=0 $Y=0 $dt=10
.ends rpp1k1_3_CDNS_724654816053

* +++++++++++++++++++++++++++++++++++++++++++++++++++++++++ *
* Sub cell: nedia_CDNS_724654816054                         *
* +++++++++++++++++++++++++++++++++++++++++++++++++++++++++ *
.subckt nedia_CDNS_724654816054 1 2 3 4
** N=4 EP=4 FDC=8
X0 2 4 3 1 LDDN w=0.0001 l=1.25e-06 adio=1.01941e-09 pdio=4.39938e-05 extlay=1 $[nedia] $X=-680 $Y=-4850 $dt=0
X1 2 4 3 1 LDDN w=0.0001 l=1.25e-06 adio=1.01941e-09 pdio=4.39938e-05 extlay=1 $[nedia] $X=11220 $Y=-4850 $dt=0
X2 2 4 3 1 LDDN w=0.0001 l=1.25e-06 adio=1.01941e-09 pdio=4.39938e-05 extlay=1 $[nedia] $X=23120 $Y=-4850 $dt=0
X3 2 4 3 1 LDDN w=0.0001 l=1.25e-06 adio=1.01941e-09 pdio=4.39938e-05 extlay=1 $[nedia] $X=35020 $Y=-4850 $dt=0
X4 2 4 3 1 LDDN w=0.0001 l=1.25e-06 adio=1.01941e-09 pdio=4.39938e-05 extlay=1 $[nedia] $X=46920 $Y=-4850 $dt=0
X5 2 4 3 1 LDDN w=0.0001 l=1.25e-06 adio=1.01941e-09 pdio=4.39938e-05 extlay=1 $[nedia] $X=58820 $Y=-4850 $dt=0
X6 2 4 3 1 LDDN w=0.0001 l=1.25e-06 adio=1.01941e-09 pdio=4.39938e-05 extlay=1 $[nedia] $X=70720 $Y=-4850 $dt=0
X7 2 4 3 1 LDDN w=0.0001 l=1.25e-06 adio=1.01941e-09 pdio=4.39938e-05 extlay=1 $[nedia] $X=82620 $Y=-4850 $dt=0
.ends nedia_CDNS_724654816054

* +++++++++++++++++++++++++++++++++++++++++++++++++++++++++ *
* Sub cell: ne3_CDNS_724654816055                           *
* +++++++++++++++++++++++++++++++++++++++++++++++++++++++++ *
.subckt ne3_CDNS_724654816055 1 2 3 4
** N=4 EP=4 FDC=2
M0 3 2 1 4 ne3 L=1e-05 W=1e-05 AD=2.7e-12 AS=4.8e-12 PD=1.054e-05 PS=2.096e-05 $X=0 $Y=0 $dt=1
M1 1 2 3 4 ne3 L=1e-05 W=1e-05 AD=4.8e-12 AS=2.7e-12 PD=2.096e-05 PS=1.054e-05 $X=10540 $Y=0 $dt=1
.ends ne3_CDNS_724654816055

* +++++++++++++++++++++++++++++++++++++++++++++++++++++++++ *
* Sub cell: pe3_CDNS_724654816056                           *
* +++++++++++++++++++++++++++++++++++++++++++++++++++++++++ *
.subckt pe3_CDNS_724654816056 1 2 3 4 5
*.DEVICECLIMB
** N=5 EP=5 FDC=1
M0 3 2 1 4 pe3 L=1e-06 W=1e-05 AD=4.8e-12 AS=4.8e-12 PD=2.096e-05 PS=2.096e-05 $X=0 $Y=0 $dt=2
.ends pe3_CDNS_724654816056

* +++++++++++++++++++++++++++++++++++++++++++++++++++++++++ *
* Sub cell: pe3_CDNS_724654816057                           *
* +++++++++++++++++++++++++++++++++++++++++++++++++++++++++ *
.subckt pe3_CDNS_724654816057 1 2 3 4
*.DEVICECLIMB
** N=4 EP=4 FDC=2
M0 3 2 1 1 pe3 L=3e-07 W=3e-06 AD=8.1e-13 AS=1.44e-12 PD=3.54e-06 PS=6.96e-06 $X=0 $Y=0 $dt=2
M1 1 2 3 1 pe3 L=3e-07 W=3e-06 AD=1.44e-12 AS=8.1e-13 PD=6.96e-06 PS=3.54e-06 $X=840 $Y=0 $dt=2
.ends pe3_CDNS_724654816057

* +++++++++++++++++++++++++++++++++++++++++++++++++++++++++ *
* Sub cell: rpp1k1_3_CDNS_724654816058                      *
* +++++++++++++++++++++++++++++++++++++++++++++++++++++++++ *
.subckt rpp1k1_3_CDNS_724654816058 1 2 3
** N=3 EP=3 FDC=1
R0 1 2 L=0.00204354 W=2e-06 $[rpp1k1_3] $SUB=3 $X=-2220 $Y=0 $dt=10
.ends rpp1k1_3_CDNS_724654816058

* +++++++++++++++++++++++++++++++++++++++++++++++++++++++++ *
* Sub cell: pe3_CDNS_7246548160511                          *
* +++++++++++++++++++++++++++++++++++++++++++++++++++++++++ *
.subckt pe3_CDNS_7246548160511 1 2 3 4 5
*.DEVICECLIMB
** N=5 EP=5 FDC=1
M0 3 2 1 4 pe3 L=5e-06 W=1e-05 AD=4.8e-12 AS=4.8e-12 PD=2.096e-05 PS=2.096e-05 $X=0 $Y=0 $dt=2
.ends pe3_CDNS_7246548160511

* +++++++++++++++++++++++++++++++++++++++++++++++++++++++++ *
* Sub cell: ne3_CDNS_7246548160512                          *
* +++++++++++++++++++++++++++++++++++++++++++++++++++++++++ *
.subckt ne3_CDNS_7246548160512 1 2 3
** N=3 EP=3 FDC=1
M0 3 2 1 1 ne3 L=1e-05 W=1e-05 AD=4.8e-12 AS=4.8e-12 PD=2.096e-05 PS=2.096e-05 $X=0 $Y=0 $dt=1
.ends ne3_CDNS_7246548160512

* +++++++++++++++++++++++++++++++++++++++++++++++++++++++++ *
* Sub cell: ne3_CDNS_7246548160513                          *
* +++++++++++++++++++++++++++++++++++++++++++++++++++++++++ *
.subckt ne3_CDNS_7246548160513 1 2 3
** N=3 EP=3 FDC=1
M0 3 2 1 1 ne3 L=1e-06 W=5e-06 AD=2.4e-12 AS=2.4e-12 PD=1.096e-05 PS=1.096e-05 $X=0 $Y=0 $dt=1
.ends ne3_CDNS_7246548160513

* +++++++++++++++++++++++++++++++++++++++++++++++++++++++++ *
* Sub cell: pe3_CDNS_7246548160514                          *
* +++++++++++++++++++++++++++++++++++++++++++++++++++++++++ *
.subckt pe3_CDNS_7246548160514 1 2 3
*.DEVICECLIMB
** N=3 EP=3 FDC=9
M0 3 2 1 1 pe3 L=5e-06 W=1e-05 AD=2.7e-12 AS=4.8e-12 PD=1.054e-05 PS=2.096e-05 $X=0 $Y=0 $dt=2
M1 1 2 3 1 pe3 L=5e-06 W=1e-05 AD=2.7e-12 AS=2.7e-12 PD=1.054e-05 PS=1.054e-05 $X=5540 $Y=0 $dt=2
M2 3 2 1 1 pe3 L=5e-06 W=1e-05 AD=2.7e-12 AS=2.7e-12 PD=1.054e-05 PS=1.054e-05 $X=11080 $Y=0 $dt=2
M3 1 2 3 1 pe3 L=5e-06 W=1e-05 AD=2.7e-12 AS=2.7e-12 PD=1.054e-05 PS=1.054e-05 $X=16620 $Y=0 $dt=2
M4 3 2 1 1 pe3 L=5e-06 W=1e-05 AD=2.7e-12 AS=2.7e-12 PD=1.054e-05 PS=1.054e-05 $X=22160 $Y=0 $dt=2
M5 1 2 3 1 pe3 L=5e-06 W=1e-05 AD=2.7e-12 AS=2.7e-12 PD=1.054e-05 PS=1.054e-05 $X=27700 $Y=0 $dt=2
M6 3 2 1 1 pe3 L=5e-06 W=1e-05 AD=2.7e-12 AS=2.7e-12 PD=1.054e-05 PS=1.054e-05 $X=33240 $Y=0 $dt=2
M7 1 2 3 1 pe3 L=5e-06 W=1e-05 AD=2.7e-12 AS=2.7e-12 PD=1.054e-05 PS=1.054e-05 $X=38780 $Y=0 $dt=2
M8 3 2 1 1 pe3 L=5e-06 W=1e-05 AD=4.8e-12 AS=2.7e-12 PD=2.096e-05 PS=1.054e-05 $X=44320 $Y=0 $dt=2
.ends pe3_CDNS_7246548160514

* +++++++++++++++++++++++++++++++++++++++++++++++++++++++++ *
* Sub cell: rpp1k1_3_CDNS_7246548160515                     *
* +++++++++++++++++++++++++++++++++++++++++++++++++++++++++ *
.subckt rpp1k1_3_CDNS_7246548160515 1 2 3
** N=3 EP=3 FDC=1
R0 1 2 L=1e-05 W=2e-06 $[rpp1k1_3] $SUB=3 $X=0 $Y=0 $dt=10
.ends rpp1k1_3_CDNS_7246548160515

* +++++++++++++++++++++++++++++++++++++++++++++++++++++++++ *
* Sub cell: rpp1k1_3_CDNS_7246548160516                     *
* +++++++++++++++++++++++++++++++++++++++++++++++++++++++++ *
.subckt rpp1k1_3_CDNS_7246548160516 1 2 3 4
*.DEVICECLIMB
** N=4 EP=4 FDC=1
R0 2 1 L=0.00016435 W=4e-06 $[rpp1k1_3] $SUB=3 $X=-4220 $Y=0 $dt=11
.ends rpp1k1_3_CDNS_7246548160516

* +++++++++++++++++++++++++++++++++++++++++++++++++++++++++ *
* Sub cell: rpp1k1_3_CDNS_7246548160517                     *
* +++++++++++++++++++++++++++++++++++++++++++++++++++++++++ *
.subckt rpp1k1_3_CDNS_7246548160517 1 2 3
** N=3 EP=3 FDC=1
R0 2 1 L=0.00041122 W=4e-06 $[rpp1k1_3] $SUB=3 $X=-4220 $Y=0 $dt=10
.ends rpp1k1_3_CDNS_7246548160517

* +++++++++++++++++++++++++++++++++++++++++++++++++++++++++ *
* Sub cell: ne3_CDNS_7246548160518                          *
* +++++++++++++++++++++++++++++++++++++++++++++++++++++++++ *
.subckt ne3_CDNS_7246548160518 1 2 3
** N=3 EP=3 FDC=1
M0 3 2 1 1 ne3 L=3.5e-07 W=2e-06 AD=9.6e-13 AS=9.6e-13 PD=4.96e-06 PS=4.96e-06 $X=0 $Y=0 $dt=1
.ends ne3_CDNS_7246548160518

* +++++++++++++++++++++++++++++++++++++++++++++++++++++++++ *
* Sub cell: VIATP_C_CDNS_7246548160548                      *
* +++++++++++++++++++++++++++++++++++++++++++++++++++++++++ *
.subckt VIATP_C_CDNS_7246548160548 1
** N=1 EP=1 FDC=0
.ends VIATP_C_CDNS_7246548160548

* +++++++++++++++++++++++++++++++++++++++++++++++++++++++++ *
* Sub cell: MASCO__X1                                       *
* +++++++++++++++++++++++++++++++++++++++++++++++++++++++++ *
.subckt MASCO__X1 1
** N=1 EP=1 FDC=0
X0 1 VIATP_C_CDNS_7246548160548 $T=660 500 0 0 $X=0 $Y=0
X1 1 VIATP_C_CDNS_7246548160548 $T=660 1500 0 0 $X=0 $Y=1000
X2 1 VIATP_C_CDNS_7246548160548 $T=660 2500 0 0 $X=0 $Y=2000
X3 1 VIATP_C_CDNS_7246548160548 $T=660 3500 0 0 $X=0 $Y=3000
X4 1 VIATP_C_CDNS_7246548160548 $T=660 4500 0 0 $X=0 $Y=4000
.ends MASCO__X1

* +++++++++++++++++++++++++++++++++++++++++++++++++++++++++ *
* Sub cell: VIATP_C_CDNS_7246548160547                      *
* +++++++++++++++++++++++++++++++++++++++++++++++++++++++++ *
.subckt VIATP_C_CDNS_7246548160547 1
** N=1 EP=1 FDC=0
.ends VIATP_C_CDNS_7246548160547

* +++++++++++++++++++++++++++++++++++++++++++++++++++++++++ *
* Sub cell: MASCO__X2                                       *
* +++++++++++++++++++++++++++++++++++++++++++++++++++++++++ *
.subckt MASCO__X2 1
** N=1 EP=1 FDC=0
X0 1 VIATP_C_CDNS_7246548160547 $T=790 500 0 0 $X=0 $Y=0
X1 1 VIATP_C_CDNS_7246548160547 $T=790 1500 0 0 $X=0 $Y=1000
X2 1 VIATP_C_CDNS_7246548160547 $T=790 2500 0 0 $X=0 $Y=2000
X3 1 VIATP_C_CDNS_7246548160547 $T=790 3500 0 0 $X=0 $Y=3000
X4 1 VIATP_C_CDNS_7246548160547 $T=790 4500 0 0 $X=0 $Y=4000
.ends MASCO__X2

* +++++++++++++++++++++++++++++++++++++++++++++++++++++++++ *
* Sub cell: VIATP_C_CDNS_7246548160546                      *
* +++++++++++++++++++++++++++++++++++++++++++++++++++++++++ *
.subckt VIATP_C_CDNS_7246548160546 1
** N=1 EP=1 FDC=0
.ends VIATP_C_CDNS_7246548160546

* +++++++++++++++++++++++++++++++++++++++++++++++++++++++++ *
* Sub cell: MASCO__X5                                       *
* +++++++++++++++++++++++++++++++++++++++++++++++++++++++++ *
.subckt MASCO__X5 1
** N=1 EP=1 FDC=0
X0 1 VIATP_C_CDNS_7246548160546 $T=500 500 0 0 $X=0 $Y=0
X1 1 VIATP_C_CDNS_7246548160546 $T=500 1500 0 0 $X=0 $Y=1000
X2 1 VIATP_C_CDNS_7246548160546 $T=500 2500 0 0 $X=0 $Y=2000
X3 1 VIATP_C_CDNS_7246548160546 $T=500 3500 0 0 $X=0 $Y=3000
X4 1 VIATP_C_CDNS_7246548160546 $T=500 4500 0 0 $X=0 $Y=4000
.ends MASCO__X5

* +++++++++++++++++++++++++++++++++++++++++++++++++++++++++ *
* Sub cell: MASCO__Y6                                       *
* +++++++++++++++++++++++++++++++++++++++++++++++++++++++++ *
.subckt MASCO__Y6 1
** N=1 EP=1 FDC=0
X0 1 MASCO__X5 $T=0 0 0 0 $X=0 $Y=0
X1 1 MASCO__X5 $T=2000 0 0 0 $X=2000 $Y=0
X2 1 MASCO__X5 $T=4000 0 0 0 $X=4000 $Y=0
X3 1 MASCO__X5 $T=6000 0 0 0 $X=6000 $Y=0
X4 1 MASCO__X5 $T=8000 0 0 0 $X=8000 $Y=0
X5 1 MASCO__X5 $T=10000 0 0 0 $X=10000 $Y=0
X6 1 MASCO__X5 $T=12000 0 0 0 $X=12000 $Y=0
X7 1 MASCO__X5 $T=14000 0 0 0 $X=14000 $Y=0
X8 1 MASCO__X5 $T=16000 0 0 0 $X=16000 $Y=0
.ends MASCO__Y6

* +++++++++++++++++++++++++++++++++++++++++++++++++++++++++ *
* Sub cell: MASCO__X4                                       *
* +++++++++++++++++++++++++++++++++++++++++++++++++++++++++ *
.subckt MASCO__X4 1
** N=1 EP=1 FDC=0
X0 1 VIATP_C_CDNS_7246548160546 $T=500 500 0 0 $X=0 $Y=0
X1 1 VIATP_C_CDNS_7246548160546 $T=500 2500 0 0 $X=0 $Y=2000
X2 1 VIATP_C_CDNS_7246548160546 $T=500 4500 0 0 $X=0 $Y=4000
X3 1 VIATP_C_CDNS_7246548160546 $T=500 6500 0 0 $X=0 $Y=6000
X4 1 VIATP_C_CDNS_7246548160546 $T=500 8500 0 0 $X=0 $Y=8000
X5 1 VIATP_C_CDNS_7246548160546 $T=500 10500 0 0 $X=0 $Y=10000
X6 1 VIATP_C_CDNS_7246548160546 $T=500 12500 0 0 $X=0 $Y=12000
X7 1 VIATP_C_CDNS_7246548160546 $T=500 14500 0 0 $X=0 $Y=14000
X8 1 VIATP_C_CDNS_7246548160546 $T=500 16500 0 0 $X=0 $Y=16000
X9 1 VIATP_C_CDNS_7246548160546 $T=500 18500 0 0 $X=0 $Y=18000
X10 1 VIATP_C_CDNS_7246548160546 $T=500 20500 0 0 $X=0 $Y=20000
X11 1 VIATP_C_CDNS_7246548160546 $T=500 22500 0 0 $X=0 $Y=22000
.ends MASCO__X4

* +++++++++++++++++++++++++++++++++++++++++++++++++++++++++ *
* Sub cell: MASCO__Y7                                       *
* +++++++++++++++++++++++++++++++++++++++++++++++++++++++++ *
.subckt MASCO__Y7 1
** N=1 EP=1 FDC=0
X0 1 MASCO__X4 $T=0 0 0 0 $X=0 $Y=0
X1 1 MASCO__X4 $T=2000 0 0 0 $X=2000 $Y=0
X2 1 MASCO__X4 $T=4000 0 0 0 $X=4000 $Y=0
X3 1 MASCO__X4 $T=6000 0 0 0 $X=6000 $Y=0
X4 1 MASCO__X4 $T=8000 0 0 0 $X=8000 $Y=0
X5 1 MASCO__X4 $T=10000 0 0 0 $X=10000 $Y=0
X6 1 MASCO__X4 $T=12000 0 0 0 $X=12000 $Y=0
.ends MASCO__Y7

* +++++++++++++++++++++++++++++++++++++++++++++++++++++++++ *
* Sub cell: MASCO__X3                                       *
* +++++++++++++++++++++++++++++++++++++++++++++++++++++++++ *
.subckt MASCO__X3 1
** N=1 EP=1 FDC=0
X0 1 VIATP_C_CDNS_7246548160546 $T=500 500 0 0 $X=0 $Y=0
X1 1 VIATP_C_CDNS_7246548160546 $T=500 2500 0 0 $X=0 $Y=2000
X2 1 VIATP_C_CDNS_7246548160546 $T=500 4500 0 0 $X=0 $Y=4000
X3 1 VIATP_C_CDNS_7246548160546 $T=500 6500 0 0 $X=0 $Y=6000
X4 1 VIATP_C_CDNS_7246548160546 $T=500 8500 0 0 $X=0 $Y=8000
X5 1 VIATP_C_CDNS_7246548160546 $T=500 10500 0 0 $X=0 $Y=10000
X6 1 VIATP_C_CDNS_7246548160546 $T=500 12500 0 0 $X=0 $Y=12000
X7 1 VIATP_C_CDNS_7246548160546 $T=500 14500 0 0 $X=0 $Y=14000
X8 1 VIATP_C_CDNS_7246548160546 $T=500 16500 0 0 $X=0 $Y=16000
X9 1 VIATP_C_CDNS_7246548160546 $T=500 18500 0 0 $X=0 $Y=18000
X10 1 VIATP_C_CDNS_7246548160546 $T=500 20500 0 0 $X=0 $Y=20000
.ends MASCO__X3

* +++++++++++++++++++++++++++++++++++++++++++++++++++++++++ *
* Sub cell: MASCO__Y8                                       *
* +++++++++++++++++++++++++++++++++++++++++++++++++++++++++ *
.subckt MASCO__Y8 1
** N=1 EP=1 FDC=0
X0 1 MASCO__X3 $T=0 0 0 0 $X=0 $Y=0
X1 1 MASCO__X3 $T=2000 0 0 0 $X=2000 $Y=0
X2 1 MASCO__X3 $T=4000 0 0 0 $X=4000 $Y=0
X3 1 MASCO__X3 $T=6000 0 0 0 $X=6000 $Y=0
X4 1 MASCO__X3 $T=8000 0 0 0 $X=8000 $Y=0
X5 1 MASCO__X3 $T=10000 0 0 0 $X=10000 $Y=0
X6 1 MASCO__X3 $T=12000 0 0 0 $X=12000 $Y=0
.ends MASCO__Y8

* +++++++++++++++++++++++++++++++++++++++++++++++++++++++++ *
* Sub cell: VIATP_C_CDNS_7246548160544                      *
* +++++++++++++++++++++++++++++++++++++++++++++++++++++++++ *
.subckt VIATP_C_CDNS_7246548160544 1
** N=1 EP=1 FDC=0
.ends VIATP_C_CDNS_7246548160544

* +++++++++++++++++++++++++++++++++++++++++++++++++++++++++ *
* Sub cell: MASCO__Y9                                       *
* +++++++++++++++++++++++++++++++++++++++++++++++++++++++++ *
.subckt MASCO__Y9 1
** N=1 EP=1 FDC=0
X0 1 VIATP_C_CDNS_7246548160544 $T=500 530 0 0 $X=0 $Y=0
X1 1 VIATP_C_CDNS_7246548160544 $T=1500 530 0 0 $X=1000 $Y=0
X2 1 VIATP_C_CDNS_7246548160544 $T=2500 530 0 0 $X=2000 $Y=0
X3 1 VIATP_C_CDNS_7246548160544 $T=3500 530 0 0 $X=3000 $Y=0
X4 1 VIATP_C_CDNS_7246548160544 $T=4500 530 0 0 $X=4000 $Y=0
X5 1 VIATP_C_CDNS_7246548160544 $T=5500 530 0 0 $X=5000 $Y=0
X6 1 VIATP_C_CDNS_7246548160544 $T=6500 530 0 0 $X=6000 $Y=0
X7 1 VIATP_C_CDNS_7246548160544 $T=7500 530 0 0 $X=7000 $Y=0
X8 1 VIATP_C_CDNS_7246548160544 $T=8500 530 0 0 $X=8000 $Y=0
X9 1 VIATP_C_CDNS_7246548160544 $T=9500 530 0 0 $X=9000 $Y=0
X10 1 VIATP_C_CDNS_7246548160544 $T=10500 530 0 0 $X=10000 $Y=0
.ends MASCO__Y9

* +++++++++++++++++++++++++++++++++++++++++++++++++++++++++ *
* Sub cell: current_source_gm_10_en_r                       *
* +++++++++++++++++++++++++++++++++++++++++++++++++++++++++ *
.subckt current_source_gm_10_en_r 1 2 3 4 5 6 7 8 9 10
+ 11
*.DEVICECLIMB
** N=27 EP=11 FDC=197
X0 6 VIA3_C_CDNS_724654816050 $T=98240 32160 0 0 $X=97490 $Y=31410
X1 12 VIA1_C_CDNS_724654816055 $T=7790 61030 0 0 $X=7390 $Y=60320
X2 4 VIA1_C_CDNS_724654816055 $T=18330 62810 0 0 $X=17930 $Y=62100
X3 12 VIA1_C_CDNS_724654816055 $T=28870 61030 0 0 $X=28470 $Y=60320
X4 13 VIA1_C_CDNS_724654816055 $T=33575 62810 0 0 $X=33175 $Y=62100
X5 14 VIA1_C_CDNS_724654816055 $T=44115 61030 0 0 $X=43715 $Y=60320
X6 13 VIA1_C_CDNS_724654816055 $T=54655 62810 0 0 $X=54255 $Y=62100
X7 15 VIA1_C_CDNS_724654816055 $T=59300 62950 0 0 $X=58900 $Y=62240
X8 16 VIA1_C_CDNS_724654816055 $T=69840 61110 0 0 $X=69440 $Y=60400
X9 15 VIA1_C_CDNS_724654816055 $T=80380 62950 0 0 $X=79980 $Y=62240
X10 17 VIA1_C_CDNS_724654816055 $T=106545 17830 0 0 $X=106145 $Y=17120
X11 18 VIA1_C_CDNS_724654816055 $T=106545 45950 0 0 $X=106145 $Y=45240
X12 17 VIA1_C_CDNS_724654816055 $T=117625 17830 0 0 $X=117225 $Y=17120
X13 18 VIA1_C_CDNS_724654816055 $T=117625 45950 0 0 $X=117225 $Y=45240
X14 17 VIA1_C_CDNS_724654816055 $T=128705 17830 0 0 $X=128305 $Y=17120
X15 18 VIA1_C_CDNS_724654816055 $T=128705 45950 0 0 $X=128305 $Y=45240
X16 17 VIA1_C_CDNS_724654816055 $T=139785 17830 0 0 $X=139385 $Y=17120
X17 18 VIA1_C_CDNS_724654816055 $T=139785 45950 0 0 $X=139385 $Y=45240
X18 17 VIA1_C_CDNS_724654816055 $T=150865 17830 0 0 $X=150465 $Y=17120
X19 18 VIA1_C_CDNS_724654816055 $T=150865 45950 0 0 $X=150465 $Y=45240
X20 18 VIA1_C_CDNS_724654816055 $T=160825 16050 0 0 $X=160425 $Y=15340
X21 17 VIA1_C_CDNS_724654816055 $T=160825 47730 0 0 $X=160425 $Y=47020
X22 18 VIA1_C_CDNS_724654816055 $T=171905 16050 0 0 $X=171505 $Y=15340
X23 17 VIA1_C_CDNS_724654816055 $T=171905 47730 0 0 $X=171505 $Y=47020
X24 18 VIA1_C_CDNS_724654816055 $T=182985 16050 0 0 $X=182585 $Y=15340
X25 17 VIA1_C_CDNS_724654816055 $T=182985 47730 0 0 $X=182585 $Y=47020
X26 18 VIA1_C_CDNS_724654816055 $T=194065 16050 0 0 $X=193665 $Y=15340
X27 17 VIA1_C_CDNS_724654816055 $T=194065 47730 0 0 $X=193665 $Y=47020
X28 18 VIA1_C_CDNS_724654816055 $T=205145 16050 0 0 $X=204745 $Y=15340
X29 17 VIA1_C_CDNS_724654816055 $T=205145 47730 0 0 $X=204745 $Y=47020
X30 1 VIA1_C_CDNS_724654816056 $T=247850 19860 0 0 $X=247710 $Y=18890
X31 19 VIA1_C_CDNS_724654816056 $T=248890 17580 0 0 $X=248750 $Y=16610
X32 1 VIA1_C_CDNS_724654816056 $T=249930 19860 0 0 $X=249790 $Y=18890
X33 19 VIA1_C_CDNS_724654816056 $T=250970 17580 0 0 $X=250830 $Y=16610
X34 1 VIA1_C_CDNS_724654816056 $T=252010 19860 0 0 $X=251870 $Y=18890
X35 12 VIA1_C_CDNS_724654816057 $T=33660 31900 0 0 $X=33260 $Y=31710
X36 12 VIA1_C_CDNS_724654816057 $T=44900 31900 0 0 $X=44500 $Y=31710
X37 12 VIA1_C_CDNS_724654816057 $T=56140 31900 0 0 $X=55740 $Y=31710
X38 14 VIA1_C_CDNS_724654816057 $T=63465 83370 0 0 $X=63065 $Y=83180
X39 14 VIA1_C_CDNS_724654816057 $T=65705 83370 0 0 $X=65305 $Y=83180
X40 14 VIA1_C_CDNS_724654816057 $T=67945 83370 0 0 $X=67545 $Y=83180
X41 14 VIA1_C_CDNS_724654816057 $T=70185 83370 0 0 $X=69785 $Y=83180
X42 14 VIA1_C_CDNS_724654816057 $T=72425 83370 0 0 $X=72025 $Y=83180
X43 17 VIA1_C_CDNS_724654816057 $T=117900 81120 0 0 $X=117500 $Y=80930