* +++++++++++++++++++++++++++++++++++++++++++++++++++++++++ *
* CDL Netlist:                                              *
*                                                           *
* Cell Name  : pulse_generator                              *
* Netlisted  : Mon Aug 26 08:47:03 2024                     *
* PVS Version: 23.11-s036 Wed Jan 17 18:11:41 PST 2024      *
* +++++++++++++++++++++++++++++++++++++++++++++++++++++++++ *
*.LDD
*.DEVTMPLT 0 LDDN(nedia) nedia2_d dnwtrm(D) p1trm(G) ndiff(S) bulk(B)
*.DEVTMPLT 1 MN(ne3) nem ndiff(D) p1trm(G) ndiff(S) bulk(B)
*.DEVTMPLT 2 MP(pe3) pem pdiff(D) p1trm(G) pdiff(S) nwtrm(B)
*.DEVTMPLT 3 NE3I_6() nemi_6 ndiff(D) p1trm(G) ndiff(S) pwitrm(B) dnwtrm(NW) bulk(SB)
*.DEVTMPLT 4 MOSVC3() mosvcm p1trm(G) nwtrm(NW) bulk(SB)
*.DEVTMPLT 5 R(s_res) s_res bulk(POS) bulk(NEG)
*.DEVTMPLT 6 D(p_dnw) p_dnw bulk(POS) nwtrm(NEG)
*.DEVTMPLT 7 D(p_ddnw) p_ddnw bulk(POS) dnwtrm(NEG)
*.DEVTMPLT 8 D(p_dipdnwmv) p_dipwmv pwitrm(POS) dnwtrm(NEG)
*.DEVTMPLT 9 D(p_dnw3) p_dnwm bulk(POS) nwtrm(NEG)
*.DEVTMPLT 10 R(rpp1k1_3) rpp1k1_s p1trm(POS) p1trm(NEG) bulk(SUB)
*.DEVTMPLT 11 R(rpp1k1_3) rpp1k1_n p1trm(POS) p1trm(NEG) nwtrm(SUB)
*.DEVTMPLT 12 C(cmm5t) cmim capm(POS) m4trm(NEG)

* +++++++++++++++++++++++++++++++++++++++++++++++++++++++++ *
* Sub cell: NE3I_6                                          *
* +++++++++++++++++++++++++++++++++++++++++++++++++++++++++ *
.subckt NE3I_6 D G S B NW SB
.ends NE3I_6

* +++++++++++++++++++++++++++++++++++++++++++++++++++++++++ *
* Sub cell: MOSVC3                                          *
* +++++++++++++++++++++++++++++++++++++++++++++++++++++++++ *
.subckt MOSVC3 G NW SB
.ends MOSVC3

* +++++++++++++++++++++++++++++++++++++++++++++++++++++++++ *
* Sub cell: LDDN                                            *
* +++++++++++++++++++++++++++++++++++++++++++++++++++++++++ *
.subckt LDDN D G S B
.ends LDDN

* +++++++++++++++++++++++++++++++++++++++++++++++++++++++++ *
* Sub cell: ne3_CDNS_724654816050                           *
* +++++++++++++++++++++++++++++++++++++++++++++++++++++++++ *
.subckt ne3_CDNS_724654816050 1 2 3
** N=3 EP=3 FDC=4
M0 3 2 1 1 ne3 L=5e-07 W=5e-06 AD=1.35e-12 AS=2.4e-12 PD=5.54e-06 PS=1.096e-05 $X=0 $Y=0 $dt=1
M1 1 2 3 1 ne3 L=5e-07 W=5e-06 AD=1.35e-12 AS=1.35e-12 PD=5.54e-06 PS=5.54e-06 $X=1040 $Y=0 $dt=1
M2 3 2 1 1 ne3 L=5e-07 W=5e-06 AD=1.35e-12 AS=1.35e-12 PD=5.54e-06 PS=5.54e-06 $X=2080 $Y=0 $dt=1
M3 1 2 3 1 ne3 L=5e-07 W=5e-06 AD=2.4e-12 AS=1.35e-12 PD=1.096e-05 PS=5.54e-06 $X=3120 $Y=0 $dt=1
.ends ne3_CDNS_724654816050

* +++++++++++++++++++++++++++++++++++++++++++++++++++++++++ *
* Sub cell: nedia_CDNS_724654816051                         *
* +++++++++++++++++++++++++++++++++++++++++++++++++++++++++ *
.subckt nedia_CDNS_724654816051 1 2 3 4
** N=4 EP=4 FDC=1
X0 2 4 3 1 LDDN w=5e-05 l=1.25e-06 adio=1.08602e-09 pdio=0.00013535 extlay=1 $[nedia] $X=-680 $Y=-4850 $dt=0
.ends nedia_CDNS_724654816051

* +++++++++++++++++++++++++++++++++++++++++++++++++++++++++ *
* Sub cell: ne3_CDNS_724654816052                           *
* +++++++++++++++++++++++++++++++++++++++++++++++++++++++++ *
.subckt ne3_CDNS_724654816052 1 2 3
** N=3 EP=3 FDC=4
M0 3 2 1 1 ne3 L=3.5e-07 W=5e-06 AD=1.35e-12 AS=2.4e-12 PD=5.54e-06 PS=1.096e-05 $X=0 $Y=0 $dt=1
M1 1 2 3 1 ne3 L=3.5e-07 W=5e-06 AD=1.35e-12 AS=1.35e-12 PD=5.54e-06 PS=5.54e-06 $X=890 $Y=0 $dt=1
M2 3 2 1 1 ne3 L=3.5e-07 W=5e-06 AD=1.35e-12 AS=1.35e-12 PD=5.54e-06 PS=5.54e-06 $X=1780 $Y=0 $dt=1
M3 1 2 3 1 ne3 L=3.5e-07 W=5e-06 AD=2.4e-12 AS=1.35e-12 PD=1.096e-05 PS=5.54e-06 $X=2670 $Y=0 $dt=1
.ends ne3_CDNS_724654816052

* +++++++++++++++++++++++++++++++++++++++++++++++++++++++++ *
* Sub cell: rpp1k1_3_CDNS_724654816053                      *
* +++++++++++++++++++++++++++++++++++++++++++++++++++++++++ *
.subckt rpp1k1_3_CDNS_724654816053 1 2 3
** N=3 EP=3 FDC=1
R0 2 1 L=0.00010265 W=4e-06 $[rpp1k1_3] $SUB=3 $X=0 $Y=0 $dt=10
.ends rpp1k1_3_CDNS_724654816053

* +++++++++++++++++++++++++++++++++++++++++++++++++++++++++ *
* Sub cell: nedia_CDNS_724654816054                         *
* +++++++++++++++++++++++++++++++++++++++++++++++++++++++++ *
.subckt nedia_CDNS_724654816054 1 2 3 4
** N=4 EP=4 FDC=8
X0 2 4 3 1 LDDN w=0.0001 l=1.25e-06 adio=1.01941e-09 pdio=4.39938e-05 extlay=1 $[nedia] $X=-680 $Y=-4850 $dt=0
X1 2 4 3 1 LDDN w=0.0001 l=1.25e-06 adio=1.01941e-09 pdio=4.39938e-05 extlay=1 $[nedia] $X=11220 $Y=-4850 $dt=0
X2 2 4 3 1 LDDN w=0.0001 l=1.25e-06 adio=1.01941e-09 pdio=4.39938e-05 extlay=1 $[nedia] $X=23120 $Y=-4850 $dt=0
X3 2 4 3 1 LDDN w=0.0001 l=1.25e-06 adio=1.01941e-09 pdio=4.39938e-05 extlay=1 $[nedia] $X=35020 $Y=-4850 $dt=0
X4 2 4 3 1 LDDN w=0.0001 l=1.25e-06 adio=1.01941e-09 pdio=4.39938e-05 extlay=1 $[nedia] $X=46920 $Y=-4850 $dt=0
X5 2 4 3 1 LDDN w=0.0001 l=1.25e-06 adio=1.01941e-09 pdio=4.39938e-05 extlay=1 $[nedia] $X=58820 $Y=-4850 $dt=0
X6 2 4 3 1 LDDN w=0.0001 l=1.25e-06 adio=1.01941e-09 pdio=4.39938e-05 extlay=1 $[nedia] $X=70720 $Y=-4850 $dt=0
X7 2 4 3 1 LDDN w=0.0001 l=1.25e-06 adio=1.01941e-09 pdio=4.39938e-05 extlay=1 $[nedia] $X=82620 $Y=-4850 $dt=0
.ends nedia_CDNS_724654816054

* +++++++++++++++++++++++++++++++++++++++++++++++++++++++++ *
* Sub cell: ne3_CDNS_724654816055                           *
* +++++++++++++++++++++++++++++++++++++++++++++++++++++++++ *
.subckt ne3_CDNS_724654816055 1 2 3 4
** N=4 EP=4 FDC=2
M0 3 2 1 4 ne3 L=1e-05 W=1e-05 AD=2.7e-12 AS=4.8e-12 PD=1.054e-05 PS=2.096e-05 $X=0 $Y=0 $dt=1
M1 1 2 3 4 ne3 L=1e-05 W=1e-05 AD=4.8e-12 AS=2.7e-12 PD=2.096e-05 PS=1.054e-05 $X=10540 $Y=0 $dt=1
.ends ne3_CDNS_724654816055

* +++++++++++++++++++++++++++++++++++++++++++++++++++++++++ *
* Sub cell: pe3_CDNS_724654816056                           *
* +++++++++++++++++++++++++++++++++++++++++++++++++++++++++ *
.subckt pe3_CDNS_724654816056 1 2 3 4
*.DEVICECLIMB
** N=5 EP=4 FDC=1
M0 3 2 1 4 pe3 L=1e-06 W=1e-05 AD=4.8e-12 AS=4.8e-12 PD=2.096e-05 PS=2.096e-05 $X=0 $Y=0 $dt=2
.ends pe3_CDNS_724654816056

* +++++++++++++++++++++++++++++++++++++++++++++++++++++++++ *
* Sub cell: pe3_CDNS_724654816057                           *
* +++++++++++++++++++++++++++++++++++++++++++++++++++++++++ *
.subckt pe3_CDNS_724654816057 1 2 3
*.DEVICECLIMB
** N=4 EP=3 FDC=2
M0 3 2 1 1 pe3 L=3e-07 W=3e-06 AD=8.1e-13 AS=1.44e-12 PD=3.54e-06 PS=6.96e-06 $X=0 $Y=0 $dt=2
M1 1 2 3 1 pe3 L=3e-07 W=3e-06 AD=1.44e-12 AS=8.1e-13 PD=6.96e-06 PS=3.54e-06 $X=840 $Y=0 $dt=2
.ends pe3_CDNS_724654816057

* +++++++++++++++++++++++++++++++++++++++++++++++++++++++++ *
* Sub cell: rpp1k1_3_CDNS_724654816058                      *
* +++++++++++++++++++++++++++++++++++++++++++++++++++++++++ *
.subckt rpp1k1_3_CDNS_724654816058 1 2 3
** N=3 EP=3 FDC=1
R0 1 2 L=0.00204354 W=2e-06 $[rpp1k1_3] $SUB=3 $X=-2220 $Y=0 $dt=10
.ends rpp1k1_3_CDNS_724654816058

* +++++++++++++++++++++++++++++++++++++++++++++++++++++++++ *
* Sub cell: pe3_CDNS_7246548160511                          *
* +++++++++++++++++++++++++++++++++++++++++++++++++++++++++ *
.subckt pe3_CDNS_7246548160511 1 2 3 4
*.DEVICECLIMB
** N=5 EP=4 FDC=1
M0 3 2 1 4 pe3 L=5e-06 W=1e-05 AD=4.8e-12 AS=4.8e-12 PD=2.096e-05 PS=2.096e-05 $X=0 $Y=0 $dt=2
.ends pe3_CDNS_7246548160511

* +++++++++++++++++++++++++++++++++++++++++++++++++++++++++ *
* Sub cell: ne3_CDNS_7246548160512                          *
* +++++++++++++++++++++++++++++++++++++++++++++++++++++++++ *
.subckt ne3_CDNS_7246548160512 1 2 3
** N=3 EP=3 FDC=1
M0 3 2 1 1 ne3 L=1e-05 W=1e-05 AD=4.8e-12 AS=4.8e-12 PD=2.096e-05 PS=2.096e-05 $X=0 $Y=0 $dt=1
.ends ne3_CDNS_7246548160512

* +++++++++++++++++++++++++++++++++++++++++++++++++++++++++ *
* Sub cell: ne3_CDNS_7246548160513                          *
* +++++++++++++++++++++++++++++++++++++++++++++++++++++++++ *
.subckt ne3_CDNS_7246548160513 1 2 3
** N=3 EP=3 FDC=1
M0 3 2 1 1 ne3 L=1e-06 W=5e-06 AD=2.4e-12 AS=2.4e-12 PD=1.096e-05 PS=1.096e-05 $X=0 $Y=0 $dt=1
.ends ne3_CDNS_7246548160513

* +++++++++++++++++++++++++++++++++++++++++++++++++++++++++ *
* Sub cell: pe3_CDNS_7246548160514                          *
* +++++++++++++++++++++++++++++++++++++++++++++++++++++++++ *
.subckt pe3_CDNS_7246548160514 1 2 3
*.DEVICECLIMB
** N=3 EP=3 FDC=9
M0 3 2 1 1 pe3 L=5e-06 W=1e-05 AD=2.7e-12 AS=4.8e-12 PD=1.054e-05 PS=2.096e-05 $X=0 $Y=0 $dt=2
M1 1 2 3 1 pe3 L=5e-06 W=1e-05 AD=2.7e-12 AS=2.7e-12 PD=1.054e-05 PS=1.054e-05 $X=5540 $Y=0 $dt=2
M2 3 2 1 1 pe3 L=5e-06 W=1e-05 AD=2.7e-12 AS=2.7e-12 PD=1.054e-05 PS=1.054e-05 $X=11080 $Y=0 $dt=2
M3 1 2 3 1 pe3 L=5e-06 W=1e-05 AD=2.7e-12 AS=2.7e-12 PD=1.054e-05 PS=1.054e-05 $X=16620 $Y=0 $dt=2
M4 3 2 1 1 pe3 L=5e-06 W=1e-05 AD=2.7e-12 AS=2.7e-12 PD=1.054e-05 PS=1.054e-05 $X=22160 $Y=0 $dt=2
M5 1 2 3 1 pe3 L=5e-06 W=1e-05 AD=2.7e-12 AS=2.7e-12 PD=1.054e-05 PS=1.054e-05 $X=27700 $Y=0 $dt=2
M6 3 2 1 1 pe3 L=5e-06 W=1e-05 AD=2.7e-12 AS=2.7e-12 PD=1.054e-05 PS=1.054e-05 $X=33240 $Y=0 $dt=2
M7 1 2 3 1 pe3 L=5e-06 W=1e-05 AD=2.7e-12 AS=2.7e-12 PD=1.054e-05 PS=1.054e-05 $X=38780 $Y=0 $dt=2
M8 3 2 1 1 pe3 L=5e-06 W=1e-05 AD=4.8e-12 AS=2.7e-12 PD=2.096e-05 PS=1.054e-05 $X=44320 $Y=0 $dt=2
.ends pe3_CDNS_7246548160514

* +++++++++++++++++++++++++++++++++++++++++++++++++++++++++ *
* Sub cell: rpp1k1_3_CDNS_7246548160515                     *
* +++++++++++++++++++++++++++++++++++++++++++++++++++++++++ *
.subckt rpp1k1_3_CDNS_7246548160515 1 2 3
** N=3 EP=3 FDC=1
R0 1 2 L=1e-05 W=2e-06 $[rpp1k1_3] $SUB=3 $X=0 $Y=0 $dt=10
.ends rpp1k1_3_CDNS_7246548160515

* +++++++++++++++++++++++++++++++++++++++++++++++++++++++++ *
* Sub cell: rpp1k1_3_CDNS_7246548160516                     *
* +++++++++++++++++++++++++++++++++++++++++++++++++++++++++ *
.subckt rpp1k1_3_CDNS_7246548160516 1 2 3
*.DEVICECLIMB
** N=4 EP=3 FDC=1
R0 2 1 L=0.00016435 W=4e-06 $[rpp1k1_3] $SUB=3 $X=-4220 $Y=0 $dt=11
.ends rpp1k1_3_CDNS_7246548160516

* +++++++++++++++++++++++++++++++++++++++++++++++++++++++++ *
* Sub cell: rpp1k1_3_CDNS_7246548160517                     *
* +++++++++++++++++++++++++++++++++++++++++++++++++++++++++ *
.subckt rpp1k1_3_CDNS_7246548160517 1 2 3
** N=3 EP=3 FDC=1
R0 2 1 L=0.00041122 W=4e-06 $[rpp1k1_3] $SUB=3 $X=-4220 $Y=0 $dt=10
.ends rpp1k1_3_CDNS_7246548160517

* +++++++++++++++++++++++++++++++++++++++++++++++++++++++++ *
* Sub cell: ne3_CDNS_7246548160518                          *
* +++++++++++++++++++++++++++++++++++++++++++++++++++++++++ *
.subckt ne3_CDNS_7246548160518 1 2 3
** N=3 EP=3 FDC=1
M0 3 2 1 1 ne3 L=3.5e-07 W=2e-06 AD=9.6e-13 AS=9.6e-13 PD=4.96e-06 PS=4.96e-06 $X=0 $Y=0 $dt=1
.ends ne3_CDNS_7246548160518

* +++++++++++++++++++++++++++++++++++++++++++++++++++++++++ *
* Sub cell: current_source_gm_10_en_r                       *
* +++++++++++++++++++++++++++++++++++++++++++++++++++++++++ *
.subckt current_source_gm_10_en_r GNDA VDD3A EN BIAS PACTIVE IN FB VSUBHV GNDHV VDDHV
+ OUT
*.DEVICECLIMB
** N=27 EP=11 FDC=197
X404 GNDA 20 19 ne3_CDNS_724654816050 $T=248120 21400 0 0 $X=247320 $Y=21000
X405 VSUBHV 23 GNDHV 19 nedia_CDNS_724654816051 $T=282450 37820 0 0 $X=266230 $Y=18430
X406 GNDA 26 12 ne3_CDNS_724654816052 $T=25060 81535 0 0 $X=24260 $Y=80955
X407 GNDA 25 20 ne3_CDNS_724654816052 $T=30635 81535 0 0 $X=29835 $Y=80955
X408 23 GNDHV VSUBHV rpp1k1_3_CDNS_724654816053 $T=317545 27490 0 90 $X=309065 $Y=26550
X409 VSUBHV OUT FB 23 nedia_CDNS_724654816054 $T=441980 141045 0 270 $X=422590 $Y=41525
X410 12 BIAS BIAS GNDA ne3_CDNS_724654816055 $T=8060 64240 0 0 $X=7260 $Y=63840
X411 13 BIAS 14 GNDA ne3_CDNS_724654816055 $T=33845 64240 0 0 $X=33045 $Y=63840
X412 15 BIAS 16 GNDA ne3_CDNS_724654816055 $T=59570 64240 0 0 $X=58770 $Y=63840
X413 VDD3A 14 19 VDD3A pe3_CDNS_724654816056 $T=63965 94930 0 180 $X=61455 $Y=83900
X414 VDD3A 14 19 VDD3A pe3_CDNS_724654816056 $T=66205 94930 0 180 $X=63695 $Y=83900
X415 VDD3A 14 14 VDD3A pe3_CDNS_724654816056 $T=68445 94930 0 180 $X=65935 $Y=83900
X416 VDD3A 14 19 VDD3A pe3_CDNS_724654816056 $T=70685 94930 0 180 $X=68175 $Y=83900
X417 VDD3A 14 19 VDD3A pe3_CDNS_724654816056 $T=72925 94930 0 180 $X=70415 $Y=83900
X418 VDD3A EN 26 pe3_CDNS_724654816057 $T=15530 89865 0 180 $X=13480 $Y=86295
X419 VDD3A PACTIVE 25 pe3_CDNS_724654816057 $T=19690 89865 0 180 $X=17640 $Y=86295
X420 GNDHV OUT VSUBHV rpp1k1_3_CDNS_724654816058 $T=558265 45130 0 90 $X=515365 $Y=41970
X421 VDD3A VDD3A VDD3A VDD3A pe3_CDNS_7246548160511 $T=109700 69700 0 0 $X=108190 $Y=68670
X422 VDD3A VDD3A VDD3A VDD3A pe3_CDNS_7246548160511 $T=109700 93320 1 0 $X=108190 $Y=82290
X423 VDD3A VDD3A VDD3A VDD3A pe3_CDNS_7246548160511 $T=113660 125985 0 0 $X=112150 $Y=124955
X424 VDD3A VDD3A VDD3A VDD3A pe3_CDNS_7246548160511 $T=113660 148965 1 0 $X=112150 $Y=137935
X425 22 18 20 VDD3A pe3_CDNS_7246548160511 $T=115940 69700 0 0 $X=114430 $Y=68670
X426 22 17 21 VDD3A pe3_CDNS_7246548160511 $T=115940 93320 1 0 $X=114430 $Y=82290
X427 VDD3A 16 22 VDD3A pe3_CDNS_7246548160511 $T=119900 125985 0 0 $X=118390 $Y=124955
X428 VDD3A 16 22 VDD3A pe3_CDNS_7246548160511 $T=119900 148965 1 0 $X=118390 $Y=137935
X429 22 17 21 VDD3A pe3_CDNS_7246548160511 $T=122180 69700 0 0 $X=120670 $Y=68670
X430 22 18 20 VDD3A pe3_CDNS_7246548160511 $T=122180 93320 1 0 $X=120670 $Y=82290
X431 VDD3A 16 22 VDD3A pe3_CDNS_7246548160511 $T=126140 125985 0 0 $X=124630 $Y=124955
X432 VDD3A 16 22 VDD3A pe3_CDNS_7246548160511 $T=126140 148965 1 0 $X=124630 $Y=137935
X433 22 18 20 VDD3A pe3_CDNS_7246548160511 $T=128420 69700 0 0 $X=126910 $Y=68670
X434 22 17 21 VDD3A pe3_CDNS_7246548160511 $T=128420 93320 1 0 $X=126910 $Y=82290
X435 VDD3A 16 22 VDD3A pe3_CDNS_7246548160511 $T=132380 125985 0 0 $X=130870 $Y=124955
X436 VDD3A 16 22 VDD3A pe3_CDNS_7246548160511 $T=132380 148965 1 0 $X=130870 $Y=137935
X437 22 17 21 VDD3A pe3_CDNS_7246548160511 $T=134660 69700 0 0 $X=133150 $Y=68670
X438 22 18 20 VDD3A pe3_CDNS_7246548160511 $T=134660 93320 1 0 $X=133150 $Y=82290
X439 VDD3A 16 22 VDD3A pe3_CDNS_7246548160511 $T=138620 125985 0 0 $X=137110 $Y=124955
X440 VDD3A 16 22 VDD3A pe3_CDNS_7246548160511 $T=138620 148965 1 0 $X=137110 $Y=137935
X441 22 18 20 VDD3A pe3_CDNS_7246548160511 $T=140900 69700 0 0 $X=139390 $Y=68670
X442 22 17 21 VDD3A pe3_CDNS_7246548160511 $T=140900 93320 1 0 $X=139390 $Y=82290
X443 VDD3A 16 22 VDD3A pe3_CDNS_7246548160511 $T=144860 125985 0 0 $X=143350 $Y=124955
X444 VDD3A 16 22 VDD3A pe3_CDNS_7246548160511 $T=144860 148965 1 0 $X=143350 $Y=137935
X445 22 17 21 VDD3A pe3_CDNS_7246548160511 $T=147140 69700 0 0 $X=145630 $Y=68670
X446 22 18 20 VDD3A pe3_CDNS_7246548160511 $T=147140 93320 1 0 $X=145630 $Y=82290
X447 VDD3A 16 18 VDD3A pe3_CDNS_7246548160511 $T=151100 125985 0 0 $X=149590 $Y=124955
X448 VDD3A 16 17 VDD3A pe3_CDNS_7246548160511 $T=151100 148965 1 0 $X=149590 $Y=137935
X449 22 18 20 VDD3A pe3_CDNS_7246548160511 $T=153380 69700 0 0 $X=151870 $Y=68670
X450 22 17 21 VDD3A pe3_CDNS_7246548160511 $T=153380 93320 1 0 $X=151870 $Y=82290
X451 VDD3A 16 16 VDD3A pe3_CDNS_7246548160511 $T=157340 125985 0 0 $X=155830 $Y=124955
X452 VDD3A 16 16 VDD3A pe3_CDNS_7246548160511 $T=157340 148965 1 0 $X=155830 $Y=137935
X453 22 17 21 VDD3A pe3_CDNS_7246548160511 $T=159620 69700 0 0 $X=158110 $Y=68670
X454 22 18 20 VDD3A pe3_CDNS_7246548160511 $T=159620 93320 1 0 $X=158110 $Y=82290
X455 VDD3A 16 17 VDD3A pe3_CDNS_7246548160511 $T=163580 125985 0 0 $X=162070 $Y=124955
X456 VDD3A 16 18 VDD3A pe3_CDNS_7246548160511 $T=163580 148965 1 0 $X=162070 $Y=137935
X457 22 18 20 VDD3A pe3_CDNS_7246548160511 $T=165860 69700 0 0 $X=164350 $Y=68670
X458 22 17 21 VDD3A pe3_CDNS_7246548160511 $T=165860 93320 1 0 $X=164350 $Y=82290
X459 VDD3A 16 22 VDD3A pe3_CDNS_7246548160511 $T=169820 125985 0 0 $X=168310 $Y=124955
X460 VDD3A 16 22 VDD3A pe3_CDNS_7246548160511 $T=169820 148965 1 0 $X=168310 $Y=137935
X461 22 17 21 VDD3A pe3_CDNS_7246548160511 $T=172100 69700 0 0 $X=170590 $Y=68670
X462 22 18 20 VDD3A pe3_CDNS_7246548160511 $T=172100 93320 1 0 $X=170590 $Y=82290
X463 VDD3A 16 22 VDD3A pe3_CDNS_7246548160511 $T=176060 125985 0 0 $X=174550 $Y=124955
X464 VDD3A 16 22 VDD3A pe3_CDNS_7246548160511 $T=176060 148965 1 0 $X=174550 $Y=137935
X465 22 18 20 VDD3A pe3_CDNS_7246548160511 $T=178340 69700 0 0 $X=176830 $Y=68670
X466 22 17 21 VDD3A pe3_CDNS_7246548160511 $T=178340 93320 1 0 $X=176830 $Y=82290
X467 VDD3A 16 22 VDD3A pe3_CDNS_7246548160511 $T=182300 125985 0 0 $X=180790 $Y=124955
X468 VDD3A 16 22 VDD3A pe3_CDNS_7246548160511 $T=182300 148965 1 0 $X=180790 $Y=137935
X469 22 17 21 VDD3A pe3_CDNS_7246548160511 $T=184580 69700 0 0 $X=183070 $Y=68670
X470 22 18 20 VDD3A pe3_CDNS_7246548160511 $T=184580 93320 1 0 $X=183070 $Y=82290
X471 VDD3A 16 22 VDD3A pe3_CDNS_7246548160511 $T=188540 125985 0 0 $X=187030 $Y=124955
X472 VDD3A 16 22 VDD3A pe3_CDNS_7246548160511 $T=188540 148965 1 0 $X=187030 $Y=137935
X473 22 18 20 VDD3A pe3_CDNS_7246548160511 $T=190820 69700 0 0 $X=189310 $Y=68670
X474 22 17 21 VDD3A pe3_CDNS_7246548160511 $T=190820 93320 1 0 $X=189310 $Y=82290
X475 VDD3A 16 22 VDD3A pe3_CDNS_7246548160511 $T=194780 125985 0 0 $X=193270 $Y=124955
X476 VDD3A 16 22 VDD3A pe3_CDNS_7246548160511 $T=194780 148965 1 0 $X=193270 $Y=137935
X477 22 17 21 VDD3A pe3_CDNS_7246548160511 $T=197060 69700 0 0 $X=195550 $Y=68670
X478 22 18 20 VDD3A pe3_CDNS_7246548160511 $T=197060 93320 1 0 $X=195550 $Y=82290
X479 VDD3A VDD3A VDD3A VDD3A pe3_CDNS_7246548160511 $T=201020 125985 0 0 $X=199510 $Y=124955
X480 VDD3A VDD3A VDD3A VDD3A pe3_CDNS_7246548160511 $T=201020 148965 1 0 $X=199510 $Y=137935
X481 VDD3A VDD3A VDD3A VDD3A pe3_CDNS_7246548160511 $T=203300 69700 0 0 $X=201790 $Y=68670
X482 VDD3A VDD3A VDD3A VDD3A pe3_CDNS_7246548160511 $T=203300 93320 1 0 $X=201790 $Y=82290
X483 GNDA GNDA GNDA ne3_CDNS_7246548160512 $T=17420 20740 0 0 $X=16620 $Y=20340
X484 GNDA GNDA GNDA ne3_CDNS_7246548160512 $T=17420 42860 1 0 $X=16620 $Y=32290
X485 GNDA 12 15 ne3_CDNS_7246548160512 $T=28660 20740 0 0 $X=27860 $Y=20340
X486 GNDA 12 15 ne3_CDNS_7246548160512 $T=28660 42860 1 0 $X=27860 $Y=32290
X487 GNDA 12 12 ne3_CDNS_7246548160512 $T=39900 20740 0 0 $X=39100 $Y=20340
X488 GNDA 12 12 ne3_CDNS_7246548160512 $T=39900 42860 1 0 $X=39100 $Y=32290
X489 GNDA 12 13 ne3_CDNS_7246548160512 $T=51140 20740 0 0 $X=50340 $Y=20340
X490 GNDA 12 13 ne3_CDNS_7246548160512 $T=51140 42860 1 0 $X=50340 $Y=32290
X491 GNDA GNDA GNDA ne3_CDNS_7246548160512 $T=62380 20740 0 0 $X=61580 $Y=20340
X492 GNDA GNDA GNDA ne3_CDNS_7246548160512 $T=62380 42860 1 0 $X=61580 $Y=32290
X493 GNDA 21 20 ne3_CDNS_7246548160513 $T=232175 21040 0 0 $X=231375 $Y=20640
X494 GNDA 21 21 ne3_CDNS_7246548160513 $T=232175 32430 1 0 $X=231375 $Y=26860
X495 GNDA 21 21 ne3_CDNS_7246548160513 $T=234415 21040 0 0 $X=233615 $Y=20640
X496 GNDA 21 20 ne3_CDNS_7246548160513 $T=234415 32430 1 0 $X=233615 $Y=26860
X497 17 IN GNDA pe3_CDNS_7246548160514 $T=106815 19890 0 0 $X=105305 $Y=18860
X498 18 24 GNDA pe3_CDNS_7246548160514 $T=106815 43890 1 0 $X=105305 $Y=32860
X499 18 24 GNDA pe3_CDNS_7246548160514 $T=161095 19890 0 0 $X=159585 $Y=18860
X500 17 IN GNDA pe3_CDNS_7246548160514 $T=161095 43890 1 0 $X=159585 $Y=32860
X501 FB 24 GNDA rpp1k1_3_CDNS_7246548160515 $T=229190 61300 0 90 $X=226970 $Y=60360
X502 FB 24 GNDA rpp1k1_3_CDNS_7246548160515 $T=232060 61300 0 90 $X=229840 $Y=60360
X503 FB 24 GNDA rpp1k1_3_CDNS_7246548160515 $T=234930 61300 0 90 $X=232710 $Y=60360
X504 FB 24 GNDA rpp1k1_3_CDNS_7246548160515 $T=237800 61300 0 90 $X=235580 $Y=60360
X505 FB 24 GNDA rpp1k1_3_CDNS_7246548160515 $T=240670 61300 0 90 $X=238450 $Y=60360
X506 FB 24 GNDA rpp1k1_3_CDNS_7246548160515 $T=243540 61300 0 90 $X=241320 $Y=60360
X507 FB 24 GNDA rpp1k1_3_CDNS_7246548160515 $T=246410 61300 0 90 $X=244190 $Y=60360
X508 FB 24 GNDA rpp1k1_3_CDNS_7246548160515 $T=249280 61300 0 90 $X=247060 $Y=60360
X509 FB 24 GNDA rpp1k1_3_CDNS_7246548160515 $T=252150 61300 0 90 $X=249930 $Y=60360
X510 19 27 VDD3A rpp1k1_3_CDNS_7246548160516 $T=255085 124550 0 180 $X=228430 $Y=99030
X511 VDDHV 23 VSUBHV rpp1k1_3_CDNS_7246548160517 $T=322885 76685 0 270 $X=322665 $Y=25845
X512 GNDA EN 26 ne3_CDNS_7246548160518 $T=14340 81020 0 0 $X=13540 $Y=80620
X513 GNDA PACTIVE 25 ne3_CDNS_7246548160518 $T=18500 81020 0 0 $X=17700 $Y=80620
X756 VDD3A GNDA GNDA MOSVC3 w=2e-05 l=3e-05 $X=16180 $Y=110530 $dt=4
X757 VDD3A GNDA GNDA MOSVC3 w=2e-05 l=3e-05 $X=16180 $Y=132530 $dt=4
X758 VDD3A GNDA GNDA MOSVC3 w=2e-05 l=3e-05 $X=48780 $Y=110530 $dt=4
X759 VDD3A GNDA GNDA MOSVC3 w=2e-05 l=3e-05 $X=48780 $Y=132530 $dt=4
D4 GNDA VDD3A p_dnw AREA=3.57048e-11 PJ=3.588e-05 perimeter=3.588e-05 $X=11740 $Y=84695 $dt=6
D5 GNDA VDD3A p_dnw AREA=1.90124e-10 PJ=7.516e-05 perimeter=7.516e-05 $X=59815 $Y=81480 $dt=6
D6 GNDA VDD3A p_dnw AREA=1.58288e-09 PJ=0.00049318 perimeter=0.00049318 $X=99710 $Y=59910 $dt=6
D7 GNDA VDD3A p_dnw AREA=3.09086e-09 PJ=0.00032604 perimeter=0.00032604 $X=101390 $Y=114415 $dt=6
D8 GNDA 17 p_dnw AREA=1.82058e-10 PJ=5.826e-05 perimeter=5.826e-05 $X=105905 $Y=15300 $dt=6
D9 GNDA 18 p_dnw AREA=1.82058e-10 PJ=5.826e-05 perimeter=5.826e-05 $X=105905 $Y=44920 $dt=6
D10 GNDA 18 p_dnw AREA=1.82058e-10 PJ=5.826e-05 perimeter=5.826e-05 $X=160185 $Y=15300 $dt=6
D11 GNDA 17 p_dnw AREA=1.82058e-10 PJ=5.826e-05 perimeter=5.826e-05 $X=160185 $Y=44920 $dt=6
D12 GNDA VDD3A p_dnw AREA=8.36476e-09 PJ=0.0003905 perimeter=0.0003905 $X=226790 $Y=95600 $dt=6
D13 GNDA VDD3A p_dnw3 AREA=4.20992e-11 PJ=0 perimeter=0 $X=12880 $Y=85835 $dt=9
D14 GNDA GNDA p_dnw3 AREA=5.9176e-11 PJ=0.00010492 perimeter=0.00010492 $X=15380 $Y=110100 $dt=9
D15 GNDA GNDA p_dnw3 AREA=5.9176e-11 PJ=0.00010492 perimeter=0.00010492 $X=15380 $Y=132100 $dt=9
D16 GNDA GNDA p_dnw3 AREA=5.9176e-11 PJ=0.00010492 perimeter=0.00010492 $X=47980 $Y=110100 $dt=9
D17 GNDA GNDA p_dnw3 AREA=5.9176e-11 PJ=0.00010492 perimeter=0.00010492 $X=47980 $Y=132100 $dt=9
D18 GNDA VDD3A p_dnw3 AREA=1.56539e-10 PJ=0 perimeter=0 $X=61455 $Y=83900 $dt=9
D19 GNDA 17 p_dnw3 AREA=5.86064e-10 PJ=7.406e-05 perimeter=7.406e-05 $X=105905 $Y=18860 $dt=9
D20 GNDA 18 p_dnw3 AREA=5.86064e-10 PJ=7.406e-05 perimeter=7.406e-05 $X=105905 $Y=33460 $dt=9
D21 GNDA VDD3A p_dnw3 AREA=1.22554e-09 PJ=0 perimeter=0 $X=108190 $Y=68670 $dt=9
D22 GNDA VDD3A p_dnw3 AREA=1.15225e-09 PJ=0.00012214 perimeter=0.00012214 $X=108190 $Y=82290 $dt=9
D23 GNDA VDD3A p_dnw3 AREA=1.15028e-09 PJ=0 perimeter=0 $X=112150 $Y=124955 $dt=9
D24 GNDA VDD3A p_dnw3 AREA=1.15028e-09 PJ=0 perimeter=0 $X=112150 $Y=137935 $dt=9
D25 GNDA 18 p_dnw3 AREA=5.86064e-10 PJ=7.406e-05 perimeter=7.406e-05 $X=160185 $Y=18860 $dt=9
D26 GNDA 17 p_dnw3 AREA=5.86064e-10 PJ=7.406e-05 perimeter=7.406e-05 $X=160185 $Y=33460 $dt=9
C27 20 27 area=8.4e-10 perimeter=0.000116 $[cmm5t] $X=231620 $Y=128940 $dt=12
C28 20 27 area=8.4e-10 perimeter=0.000116 $[cmm5t] $X=263220 $Y=97740 $dt=12
C29 20 27 area=8.4e-10 perimeter=0.000116 $[cmm5t] $X=263220 $Y=128940 $dt=12
C30 20 27 area=8.4e-10 perimeter=0.000116 $[cmm5t] $X=294820 $Y=97740 $dt=12
C31 20 27 area=8.4e-10 perimeter=0.000116 $[cmm5t] $X=294820 $Y=128940 $dt=12
C32 20 27 area=8.4e-10 perimeter=0.000116 $[cmm5t] $X=326420 $Y=97740 $dt=12
C33 20 27 area=8.4e-10 perimeter=0.000116 $[cmm5t] $X=326420 $Y=128940 $dt=12
.ends current_source_gm_10_en_r

* +++++++++++++++++++++++++++++++++++++++++++++++++++++++++ *
* Sub cell: mosvc3_CDNS_7246548160521                       *
* +++++++++++++++++++++++++++++++++++++++++++++++++++++++++ *
.subckt mosvc3_CDNS_7246548160521 1 2
** N=2 EP=2 FDC=2
X0 2 1 1 MOSVC3 w=2.5e-05 l=2e-05 $X=0 $Y=0 $dt=4
D1 1 1 p_dnw3 AREA=5.8576e-11 PJ=9.492e-05 perimeter=9.492e-05 $X=-800 $Y=-430 $dt=9
.ends mosvc3_CDNS_7246548160521

* +++++++++++++++++++++++++++++++++++++++++++++++++++++++++ *
* Sub cell: mosvc3_CDNS_7246548160522                       *
* +++++++++++++++++++++++++++++++++++++++++++++++++++++++++ *
.subckt mosvc3_CDNS_7246548160522 1 2
** N=2 EP=2 FDC=2
X0 2 1 1 MOSVC3 w=2e-05 l=2e-05 $X=0 $Y=0 $dt=4
D1 1 1 p_dnw3 AREA=5.0576e-11 PJ=8.492e-05 perimeter=8.492e-05 $X=-800 $Y=-430 $dt=9
.ends mosvc3_CDNS_7246548160522

* +++++++++++++++++++++++++++++++++++++++++++++++++++++++++ *
* Sub cell: pe3_CDNS_7246548160523                          *
* +++++++++++++++++++++++++++++++++++++++++++++++++++++++++ *
.subckt pe3_CDNS_7246548160523 1 2 3
*.DEVICECLIMB
** N=4 EP=3 FDC=1
M0 3 2 1 1 pe3 L=1e-05 W=1e-05 AD=4.8e-12 AS=4.8e-12 PD=2.096e-05 PS=2.096e-05 $X=0 $Y=0 $dt=2
.ends pe3_CDNS_7246548160523

* +++++++++++++++++++++++++++++++++++++++++++++++++++++++++ *
* Sub cell: pe3_CDNS_7246548160524                          *
* +++++++++++++++++++++++++++++++++++++++++++++++++++++++++ *
.subckt pe3_CDNS_7246548160524 1 2 3 4
*.DEVICECLIMB
** N=5 EP=4 FDC=2
M0 3 2 1 4 pe3 L=1e-06 W=1e-05 AD=2.7e-12 AS=4.8e-12 PD=1.054e-05 PS=2.096e-05 $X=0 $Y=0 $dt=2
M1 1 2 3 4 pe3 L=1e-06 W=1e-05 AD=4.8e-12 AS=2.7e-12 PD=2.096e-05 PS=1.054e-05 $X=1540 $Y=0 $dt=2
.ends pe3_CDNS_7246548160524

* +++++++++++++++++++++++++++++++++++++++++++++++++++++++++ *
* Sub cell: pe3_CDNS_7246548160525                          *
* +++++++++++++++++++++++++++++++++++++++++++++++++++++++++ *
.subckt pe3_CDNS_7246548160525 1 2 3 4
*.DEVICECLIMB
** N=5 EP=4 FDC=4
M0 3 2 1 4 pe3 L=1e-06 W=1e-05 AD=2.7e-12 AS=4.8e-12 PD=1.054e-05 PS=2.096e-05 $X=0 $Y=0 $dt=2
M1 1 2 3 4 pe3 L=1e-06 W=1e-05 AD=2.7e-12 AS=2.7e-12 PD=1.054e-05 PS=1.054e-05 $X=1540 $Y=0 $dt=2
M2 3 2 1 4 pe3 L=1e-06 W=1e-05 AD=2.7e-12 AS=2.7e-12 PD=1.054e-05 PS=1.054e-05 $X=3080 $Y=0 $dt=2
M3 1 2 3 4 pe3 L=1e-06 W=1e-05 AD=4.8e-12 AS=2.7e-12 PD=2.096e-05 PS=1.054e-05 $X=4620 $Y=0 $dt=2
.ends pe3_CDNS_7246548160525

* +++++++++++++++++++++++++++++++++++++++++++++++++++++++++ *
* Sub cell: pe3_CDNS_7246548160526                          *
* +++++++++++++++++++++++++++++++++++++++++++++++++++++++++ *
.subckt pe3_CDNS_7246548160526 1 2 3 4
*.DEVICECLIMB
** N=5 EP=4 FDC=8
M0 3 2 1 4 pe3 L=1e-06 W=1e-05 AD=2.7e-12 AS=4.8e-12 PD=1.054e-05 PS=2.096e-05 $X=0 $Y=0 $dt=2
M1 1 2 3 4 pe3 L=1e-06 W=1e-05 AD=2.7e-12 AS=2.7e-12 PD=1.054e-05 PS=1.054e-05 $X=1540 $Y=0 $dt=2
M2 3 2 1 4 pe3 L=1e-06 W=1e-05 AD=2.7e-12 AS=2.7e-12 PD=1.054e-05 PS=1.054e-05 $X=3080 $Y=0 $dt=2
M3 1 2 3 4 pe3 L=1e-06 W=1e-05 AD=2.7e-12 AS=2.7e-12 PD=1.054e-05 PS=1.054e-05 $X=4620 $Y=0 $dt=2
M4 3 2 1 4 pe3 L=1e-06 W=1e-05 AD=2.7e-12 AS=2.7e-12 PD=1.054e-05 PS=1.054e-05 $X=6160 $Y=0 $dt=2
M5 1 2 3 4 pe3 L=1e-06 W=1e-05 AD=2.7e-12 AS=2.7e-12 PD=1.054e-05 PS=1.054e-05 $X=7700 $Y=0 $dt=2
M6 3 2 1 4 pe3 L=1e-06 W=1e-05 AD=2.7e-12 AS=2.7e-12 PD=1.054e-05 PS=1.054e-05 $X=9240 $Y=0 $dt=2
M7 1 2 3 4 pe3 L=1e-06 W=1e-05 AD=4.8e-12 AS=2.7e-12 PD=2.096e-05 PS=1.054e-05 $X=10780 $Y=0 $dt=2
.ends pe3_CDNS_7246548160526

* +++++++++++++++++++++++++++++++++++++++++++++++++++++++++ *
* Sub cell: pe3_CDNS_7246548160527                          *
* +++++++++++++++++++++++++++++++++++++++++++++++++++++++++ *
.subckt pe3_CDNS_7246548160527 1 2 3 4
*.DEVICECLIMB
** N=5 EP=4 FDC=16
M0 3 2 1 4 pe3 L=1e-06 W=1e-05 AD=2.7e-12 AS=4.8e-12 PD=1.054e-05 PS=2.096e-05 $X=0 $Y=0 $dt=2
M1 1 2 3 4 pe3 L=1e-06 W=1e-05 AD=2.7e-12 AS=2.7e-12 PD=1.054e-05 PS=1.054e-05 $X=1540 $Y=0 $dt=2
M2 3 2 1 4 pe3 L=1e-06 W=1e-05 AD=2.7e-12 AS=2.7e-12 PD=1.054e-05 PS=1.054e-05 $X=3080 $Y=0 $dt=2
M3 1 2 3 4 pe3 L=1e-06 W=1e-05 AD=2.7e-12 AS=2.7e-12 PD=1.054e-05 PS=1.054e-05 $X=4620 $Y=0 $dt=2
M4 3 2 1 4 pe3 L=1e-06 W=1e-05 AD=2.7e-12 AS=2.7e-12 PD=1.054e-05 PS=1.054e-05 $X=6160 $Y=0 $dt=2
M5 1 2 3 4 pe3 L=1e-06 W=1e-05 AD=2.7e-12 AS=2.7e-12 PD=1.054e-05 PS=1.054e-05 $X=7700 $Y=0 $dt=2
M6 3 2 1 4 pe3 L=1e-06 W=1e-05 AD=2.7e-12 AS=2.7e-12 PD=1.054e-05 PS=1.054e-05 $X=9240 $Y=0 $dt=2
M7 1 2 3 4 pe3 L=1e-06 W=1e-05 AD=2.7e-12 AS=2.7e-12 PD=1.054e-05 PS=1.054e-05 $X=10780 $Y=0 $dt=2
M8 3 2 1 4 pe3 L=1e-06 W=1e-05 AD=2.7e-12 AS=2.7e-12 PD=1.054e-05 PS=1.054e-05 $X=12320 $Y=0 $dt=2
M9 1 2 3 4 pe3 L=1e-06 W=1e-05 AD=2.7e-12 AS=2.7e-12 PD=1.054e-05 PS=1.054e-05 $X=13860 $Y=0 $dt=2
M10 3 2 1 4 pe3 L=1e-06 W=1e-05 AD=2.7e-12 AS=2.7e-12 PD=1.054e-05 PS=1.054e-05 $X=15400 $Y=0 $dt=2
M11 1 2 3 4 pe3 L=1e-06 W=1e-05 AD=2.7e-12 AS=2.7e-12 PD=1.054e-05 PS=1.054e-05 $X=16940 $Y=0 $dt=2
M12 3 2 1 4 pe3 L=1e-06 W=1e-05 AD=2.7e-12 AS=2.7e-12 PD=1.054e-05 PS=1.054e-05 $X=18480 $Y=0 $dt=2
M13 1 2 3 4 pe3 L=1e-06 W=1e-05 AD=2.7e-12 AS=2.7e-12 PD=1.054e-05 PS=1.054e-05 $X=20020 $Y=0 $dt=2
M14 3 2 1 4 pe3 L=1e-06 W=1e-05 AD=2.7e-12 AS=2.7e-12 PD=1.054e-05 PS=1.054e-05 $X=21560 $Y=0 $dt=2
M15 1 2 3 4 pe3 L=1e-06 W=1e-05 AD=4.8e-12 AS=2.7e-12 PD=2.096e-05 PS=1.054e-05 $X=23100 $Y=0 $dt=2
.ends pe3_CDNS_7246548160527

* +++++++++++++++++++++++++++++++++++++++++++++++++++++++++ *
* Sub cell: pe3_CDNS_7246548160528                          *
* +++++++++++++++++++++++++++++++++++++++++++++++++++++++++ *
.subckt pe3_CDNS_7246548160528 1 2 3 4
*.DEVICECLIMB
** N=5 EP=4 FDC=32
M0 3 2 1 4 pe3 L=1e-06 W=1e-05 AD=2.7e-12 AS=4.8e-12 PD=1.054e-05 PS=2.096e-05 $X=0 $Y=0 $dt=2
M1 1 2 3 4 pe3 L=1e-06 W=1e-05 AD=2.7e-12 AS=2.7e-12 PD=1.054e-05 PS=1.054e-05 $X=1540 $Y=0 $dt=2
M2 3 2 1 4 pe3 L=1e-06 W=1e-05 AD=2.7e-12 AS=2.7e-12 PD=1.054e-05 PS=1.054e-05 $X=3080 $Y=0 $dt=2
M3 1 2 3 4 pe3 L=1e-06 W=1e-05 AD=2.7e-12 AS=2.7e-12 PD=1.054e-05 PS=1.054e-05 $X=4620 $Y=0 $dt=2
M4 3 2 1 4 pe3 L=1e-06 W=1e-05 AD=2.7e-12 AS=2.7e-12 PD=1.054e-05 PS=1.054e-05 $X=6160 $Y=0 $dt=2
M5 1 2 3 4 pe3 L=1e-06 W=1e-05 AD=2.7e-12 AS=2.7e-12 PD=1.054e-05 PS=1.054e-05 $X=7700 $Y=0 $dt=2
M6 3 2 1 4 pe3 L=1e-06 W=1e-05 AD=2.7e-12 AS=2.7e-12 PD=1.054e-05 PS=1.054e-05 $X=9240 $Y=0 $dt=2
M7 1 2 3 4 pe3 L=1e-06 W=1e-05 AD=2.7e-12 AS=2.7e-12 PD=1.054e-05 PS=1.054e-05 $X=10780 $Y=0 $dt=2
M8 3 2 1 4 pe3 L=1e-06 W=1e-05 AD=2.7e-12 AS=2.7e-12 PD=1.054e-05 PS=1.054e-05 $X=12320 $Y=0 $dt=2
M9 1 2 3 4 pe3 L=1e-06 W=1e-05 AD=2.7e-12 AS=2.7e-12 PD=1.054e-05 PS=1.054e-05 $X=13860 $Y=0 $dt=2
M10 3 2 1 4 pe3 L=1e-06 W=1e-05 AD=2.7e-12 AS=2.7e-12 PD=1.054e-05 PS=1.054e-05 $X=15400 $Y=0 $dt=2
M11 1 2 3 4 pe3 L=1e-06 W=1e-05 AD=2.7e-12 AS=2.7e-12 PD=1.054e-05 PS=1.054e-05 $X=16940 $Y=0 $dt=2
M12 3 2 1 4 pe3 L=1e-06 W=1e-05 AD=2.7e-12 AS=2.7e-12 PD=1.054e-05 PS=1.054e-05 $X=18480 $Y=0 $dt=2
M13 1 2 3 4 pe3 L=1e-06 W=1e-05 AD=2.7e-12 AS=2.7e-12 PD=1.054e-05 PS=1.054e-05 $X=20020 $Y=0 $dt=2
M14 3 2 1 4 pe3 L=1e-06 W=1e-05 AD=2.7e-12 AS=2.7e-12 PD=1.054e-05 PS=1.054e-05 $X=21560 $Y=0 $dt=2