************************************************************************
* auCdl Netlist:
* 
* Library Name:  TO_TEST_24_10_16
* Top Cell Name: aska_top_16ele_v2_TOP
* View Name:     schematic
* Netlisted on:  Oct 16 15:18:03 2024
************************************************************************

*.BIPOLAR
*.RESI = 2000 
*.RESVAL
*.CAPVAL
*.DIOPERI
*.DIOAREA
*.EQUATION
*.LDD
*.SCALE METER
.PARAM



************************************************************************
* Library Name: D_CELLS_3V
* Cell Name:    STE_3VX4
* View Name:    cmos_sch
************************************************************************

.SUBCKT STE_3VX4 A Q inh_ground_gnd inh_power_vdd3
*.PININFO A:I Q:O inh_ground_gnd:B inh_power_vdd3:B
MM0 net39 A inh_ground_gnd inh_ground_gnd NE3 W=650.0n L=350.0n M=1.0 
+ AD=3.12e-13 AS=3.12e-13 PD=2.26e-06 PS=2.26e-06 NRD=0.415385 NRS=0.415385
MM5 inh_power_vdd3 net31 net39 inh_ground_gnd NE3 W=890.0n L=350.0n M=1.0 
+ AD=4.272e-13 AS=4.272e-13 PD=2.74e-06 PS=2.74e-06 NRD=0.303371 NRS=0.303371
MM1 net31 A net39 inh_ground_gnd NE3 W=760.0n L=350.0n M=1.0 AD=3.648e-13 
+ AS=3.648e-13 PD=2.48e-06 PS=2.48e-06 NRD=0.355263 NRS=0.355263
MM7 Q net31 inh_ground_gnd inh_ground_gnd NE3 W=2.64u L=350.0n M=1.0 
+ AD=1.2672e-12 AS=1.2672e-12 PD=6.24e-06 PS=6.24e-06 NRD=0.102273 NRS=0.102273
MM3 net14 A inh_power_vdd3 inh_power_vdd3 PE3 W=1.35u L=300n M=1.0 AD=6.48e-13 
+ AS=6.48e-13 PD=3.66e-06 PS=3.66e-06 NRD=0.2 NRS=0.2
MM4 inh_ground_gnd net31 net14 inh_power_vdd3 PE3 W=1.41u L=350.0n M=1.0 
+ AD=6.768e-13 AS=6.768e-13 PD=3.78e-06 PS=3.78e-06 NRD=0.191489 NRS=0.191489
MM2 net31 A net14 inh_power_vdd3 PE3 W=1.41u L=300n M=1.0 AD=6.768e-13 
+ AS=6.768e-13 PD=3.78e-06 PS=3.78e-06 NRD=0.191489 NRS=0.191489
MM6 Q net31 inh_power_vdd3 inh_power_vdd3 PE3 W=5.64u L=300n M=1.0 
+ AD=2.7072e-12 AS=2.7072e-12 PD=1.224e-05 PS=1.224e-05 NRD=0.0478723 
+ NRS=0.0478723
.ENDS

************************************************************************
* Library Name: ASKA_POR
* Cell Name:    por2
* View Name:    schematic
************************************************************************

.SUBCKT por2 BG_REF BIAS GNDA POR_OUT_L VDDA
*.PININFO BG_REF:B BIAS:B GNDA:B POR_OUT_L:B VDDA:B
XC0 DEL GNDA GNDA / mosvc3 W=50u L=50u M=10.0 par1=10.0
MM21 VDDA VDDA VDDA VDDA PE3 W=10u L=5u M=8.0 AD=4.8e-12 AS=4.8e-12 
+ PD=2.096e-05 PS=2.096e-05 NRD=0.027 NRS=0.027
MM15 A C net9 VDDA PE3 W=4u L=500n M=1.0 AD=1.92e-12 AS=1.92e-12 PD=8.96e-06 
+ PS=8.96e-06 NRD=0.0675 NRS=0.0675
MM13 net10 BG_REF net9 VDDA PE3 W=4u L=500n M=1.0 AD=1.92e-12 AS=1.92e-12 
+ PD=8.96e-06 PS=8.96e-06 NRD=0.0675 NRS=0.0675
MM12 net9 net1 VDDA VDDA PE3 W=10u L=5u M=10.0 AD=4.8e-12 AS=4.8e-12 
+ PD=2.096e-05 PS=2.096e-05 NRD=0.027 NRS=0.027
MM1 DEL net1 VDDA VDDA PE3 W=10u L=5u M=2.0 AD=4.8e-12 AS=4.8e-12 PD=2.096e-05 
+ PS=2.096e-05 NRD=0.027 NRS=0.027
MM14 net1 net1 VDDA VDDA PE3 W=10u L=5u M=10.0 AD=4.8e-12 AS=4.8e-12 
+ PD=2.096e-05 PS=2.096e-05 NRD=0.027 NRS=0.027
MM17 net10 net10 GNDA GNDA NE3 W=5u L=5u M=1.0 AD=2.4e-12 AS=2.4e-12 
+ PD=1.096e-05 PS=1.096e-05 NRD=0.054 NRS=0.054
MM20 GNDA GNDA GNDA GNDA NE3 W=10u L=5u M=5.0 AD=4.8e-12 AS=4.8e-12 
+ PD=2.096e-05 PS=2.096e-05 NRD=0.027 NRS=0.027
MM16 A net10 GNDA GNDA NE3 W=5u L=5u M=1.0 AD=2.4e-12 AS=2.4e-12 PD=1.096e-05 
+ PS=1.096e-05 NRD=0.054 NRS=0.054
MM18 net1 BIAS GNDA GNDA NE3 W=10u L=5u M=1.0 AD=4.8e-12 AS=4.8e-12 
+ PD=2.096e-05 PS=2.096e-05 NRD=0.027 NRS=0.027
MM19 BIAS BIAS GNDA GNDA NE3 W=10u L=5u M=10.0 AD=4.8e-12 AS=4.8e-12 
+ PD=2.096e-05 PS=2.096e-05 NRD=0.027 NRS=0.027
MM7 DEL A GNDA GNDA NE3 W=5u L=350.0n M=2.0 AD=1.35e-12 AS=2.4e-12 PD=5.54e-06 
+ PS=1.096e-05 NRD=0.054 NRS=0.054
XI0 DEL POR_OUT_L GNDA VDDA / STE_3VX4
RR2 C GNDA 690009 $SUB=GNDA $[RPP1K1_3] $W=4u $L=2.83888m M=1
RR1 VDDA C 1e+06 $SUB=GNDA $[RPP1K1_3] $W=4u $L=4.11438m M=1
.ENDS

************************************************************************
* Library Name: ASKA_CURRENT_SOURCE
* Cell Name:    current_source_gm_10_en_r
* View Name:    schematic
************************************************************************

.SUBCKT current_source_gm_10_en_r BIAS EN FB GNDA GNDHV IN OUT PACTIVE VDD3A 
+ VDDHV VSUBHV
*.PININFO BIAS:B EN:B FB:B GNDA:B GNDHV:B IN:B OUT:B PACTIVE:B VDD3A:B VDDHV:B 
*.PININFO VSUBHV:B
XC0 VDD3A GNDA GNDA / mosvc3 W=20u L=30u M=4.0 par1=4.0
MM30 VDD3A VDD3A VDD3A VDD3A PE3 W=10u L=5u M=4.0 AD=4.8e-12 AS=4.8e-12 
+ PD=2.096e-05 PS=2.096e-05 NRD=0.027 NRS=0.027
MM26 net16 EN VDD3A VDD3A PE3 W=3u L=300n M=2.0 AD=2.88e-12 AS=2.88e-12 
+ PD=1.296e-05 PS=1.296e-05 NRD=0.045 NRS=0.045
MM35 net13 PACTIVE VDD3A VDD3A PE3 W=3u L=300n M=2.0 AD=2.88e-12 AS=2.88e-12 
+ PD=1.296e-05 PS=1.296e-05 NRD=0.045 NRS=0.045
MM23 net15 net15 VDD3A VDD3A PE3 W=10u L=1u M=1.0 AD=4.8e-12 AS=4.8e-12 
+ PD=2.096e-05 PS=2.096e-05 NRD=0.027 NRS=0.027
MM29 VDD3A VDD3A VDD3A VDD3A PE3 W=10u L=5u M=4.0 AD=4.8e-12 AS=4.8e-12 
+ PD=2.096e-05 PS=2.096e-05 NRD=0.027 NRS=0.027
MM11 net10 net4 VDD3A VDD3A PE3 W=10u L=5u M=2.0 AD=4.8e-12 AS=4.8e-12 
+ PD=2.096e-05 PS=2.096e-05 NRD=0.027 NRS=0.027
MM9 net6 net4 VDD3A VDD3A PE3 W=10u L=5u M=2.0 AD=4.8e-12 AS=4.8e-12 
+ PD=2.096e-05 PS=2.096e-05 NRD=0.027 NRS=0.027
MM10 net8 net4 VDD3A VDD3A PE3 W=10u L=5u M=20.0 AD=4.8e-12 AS=4.8e-12 
+ PD=2.096e-05 PS=2.096e-05 NRD=0.027 NRS=0.027
MM20 VB net15 VDD3A VDD3A PE3 W=10u L=1u M=4.0 AD=4.8e-12 AS=4.8e-12 
+ PD=2.096e-05 PS=2.096e-05 NRD=0.027 NRS=0.027
MM5 net9 net10 net8 VDD3A PE3 W=10u L=5u M=14.0 AD=4.8e-12 AS=4.8e-12 
+ PD=2.096e-05 PS=2.096e-05 NRD=0.027 NRS=0.027
MM3 net7 net6 net8 VDD3A PE3 W=10u L=5u M=14.0 AD=4.8e-12 AS=4.8e-12 
+ PD=2.096e-05 PS=2.096e-05 NRD=0.027 NRS=0.027
MM12 net4 net4 VDD3A VDD3A PE3 W=10u L=5u M=2.0 AD=4.8e-12 AS=4.8e-12 
+ PD=2.096e-05 PS=2.096e-05 NRD=0.027 NRS=0.027
MM8 GNDA IN net6 net6 PE3 W=10u L=5u M=18.0 AD=2.93333e-12 AS=2.93333e-12 
+ PD=1.16978e-05 PS=1.16978e-05 NRD=0.027 NRS=0.027
MM7 GNDA net1 net10 net10 PE3 W=10u L=5u M=18.0 AD=2.93333e-12 AS=2.93333e-12 
+ PD=1.16978e-05 PS=1.16978e-05 NRD=0.027 NRS=0.027
MM25 net16 EN GNDA GNDA NE3 W=2u L=350.0n M=1.0 AD=9.6e-13 AS=9.6e-13 
+ PD=4.96e-06 PS=4.96e-06 NRD=0.135 NRS=0.135
MM24 net12 net16 GNDA GNDA NE3 W=5u L=350.0n M=4.0 AD=2.7e-12 AS=4.8e-12 
+ PD=1.054e-05 PS=2.096e-05 NRD=0.027 NRS=0.027
MM34 net13 PACTIVE GNDA GNDA NE3 W=2u L=350.0n M=1.0 AD=9.6e-13 AS=9.6e-13 
+ PD=4.96e-06 PS=4.96e-06 NRD=0.135 NRS=0.135
MM32 net9 net13 GNDA GNDA NE3 W=5u L=350.0n M=4.0 AD=2.7e-12 AS=4.8e-12 
+ PD=1.054e-05 PS=2.096e-05 NRD=0.027 NRS=0.027
MM22 net15 BIAS net14 GNDA NE3 W=10u L=10u M=2.0 AD=2.7e-12 AS=4.8e-12 
+ PD=1.054e-05 PS=2.096e-05 NRD=0.027 NRS=0.027
MM21 net14 net12 GNDA GNDA NE3 W=10u L=10u M=2.0 AD=4.8e-12 AS=4.8e-12 
+ PD=2.096e-05 PS=2.096e-05 NRD=0.027 NRS=0.027
MM19 net4 BIAS net5 GNDA NE3 W=10u L=10u M=2.0 AD=2.7e-12 AS=4.8e-12 
+ PD=1.054e-05 PS=2.096e-05 NRD=0.027 NRS=0.027
MM18 BIAS BIAS net12 GNDA NE3 W=10u L=10u M=2.0 AD=2.7e-12 AS=4.8e-12 
+ PD=1.054e-05 PS=2.096e-05 NRD=0.027 NRS=0.027
MM27 GNDA GNDA GNDA GNDA NE3 W=10u L=10u M=4.0 AD=4.8e-12 AS=4.8e-12 
+ PD=2.096e-05 PS=2.096e-05 NRD=0.027 NRS=0.027
MM6 VB net9 GNDA GNDA NE3 W=5u L=500n M=4.0 AD=1.35e-12 AS=1.875e-12 
+ PD=5.54e-06 PS=8.25e-06 NRD=0.054 NRS=0.054
MM4 net7 net7 GNDA GNDA NE3 W=5u L=1u M=2.0 AD=2.4e-12 AS=2.4e-12 PD=1.096e-05 
+ PS=1.096e-05 NRD=0.054 NRS=0.054
MM2 net9 net7 GNDA GNDA NE3 W=5u L=1u M=2.0 AD=2.4e-12 AS=2.4e-12 PD=1.096e-05 
+ PS=1.096e-05 NRD=0.054 NRS=0.054
MM13 net5 net12 GNDA GNDA NE3 W=10u L=10u M=2.0 AD=4.8e-12 AS=4.8e-12 
+ PD=2.096e-05 PS=2.096e-05 NRD=0.027 NRS=0.027
MM14 net12 net12 GNDA GNDA NE3 W=10u L=10u M=2.0 AD=4.8e-12 AS=4.8e-12 
+ PD=2.096e-05 PS=2.096e-05 NRD=0.027 NRS=0.027
MM0 OUT VA FB VSUBHV NEDIA W=100.0000u L=1.25u M=8.0 $LDD[NEDIA]
MM1 VA VB GNDHV VSUBHV NEDIA W=50u L=1.25u M=1.0 $LDD[NEDIA]
CC1 net9 net11 $[CMM5T] area=8.4e-10 perimeter=116.000000u M=7
RR7 GNDHV OUT 1.00618M $SUB=VSUBHV $[RPP1K1_3] $W=2u $L=2.04358m M=1
RR4 FB net1 5031.08 $SUB=GNDA $[RPP1K1_3] $W=2u $L=10u M=9
RR2 VA VDDHV 99.9954K $SUB=VSUBHV $[RPP1K1_3] $W=4u $L=411.22u M=1
RR3 GNDHV VA 25.0012K $SUB=VSUBHV $[RPP1K1_3] $W=4u $L=102.65u M=1
RR0 net11 VB 39.9966K $SUB=VDD3A $[RPP1K1_3] $W=4u $L=164.35u M=1
.ENDS

************************************************************************
* Library Name: ASKA_DAC6B
* Cell Name:    dac6b_amp_n2
* View Name:    schematic
************************************************************************

.SUBCKT dac6b_amp_n2 BIAS D0 D1 D2 D3 D4 D5 ENABLE GNDA VDDA VOUT VREF
*.PININFO BIAS:B D0:B D1:B D2:B D3:B D4:B D5:B ENABLE:B GNDA:B VDDA:B VOUT:B 
*.PININFO VREF:B
MM43 VDDA VDDA VDDA VDDA PE3 W=2u L=10u M=30.0 AD=9.6e-13 AS=9.6e-13 
+ PD=4.96e-06 PS=4.96e-06 NRD=0.135 NRS=0.135
MM42 VDDA VDDA VDDA VDDA PE3 W=10u L=10u M=17.0 AD=4.8e-12 AS=4.8e-12 
+ PD=2.096e-05 PS=2.096e-05 NRD=0.027 NRS=0.027
MM36 VDDA VDDA VDDA VDDA PE3 W=10u L=10u M=4.0 AD=4.8e-12 AS=4.8e-12 
+ PD=2.096e-05 PS=2.096e-05 NRD=0.027 NRS=0.027
MM35 EN ENABLE VDDA VDDA PE3 W=6u L=300n M=1.0 AD=2.88e-12 AS=2.88e-12 
+ PD=1.296e-05 PS=1.296e-05 NRD=0.045 NRS=0.045
MM31 GNDA GNDA net34 net34 PE3 W=10u L=20u M=1.0 AD=4.8e-12 AS=4.8e-12 
+ PD=2.096e-05 PS=2.096e-05 NRD=0.027 NRS=0.027
MM30 net34 net34 net30 net30 PE3 W=10u L=20u M=1.0 AD=4.8e-12 AS=4.8e-12 
+ PD=2.096e-05 PS=2.096e-05 NRD=0.027 NRS=0.027
MM29 net30 net30 net10 net10 PE3 W=10u L=20u M=1.0 AD=4.8e-12 AS=4.8e-12 
+ PD=2.096e-05 PS=2.096e-05 NRD=0.027 NRS=0.027
MM28 net8 net8 VDDA VDDA PE3 W=10u L=10u M=2.0 AD=4.8e-12 AS=4.8e-12 
+ PD=2.096e-05 PS=2.096e-05 NRD=0.027 NRS=0.027
MM27 net10 net8 VDDA VDDA PE3 W=10u L=10u M=2.0 AD=4.8e-12 AS=4.8e-12 
+ PD=2.096e-05 PS=2.096e-05 NRD=0.027 NRS=0.027
MM23 net12 net12 VDDA VDDA PE3 W=10u L=10u M=8.0 AD=4.8e-12 AS=4.8e-12 
+ PD=2.096e-05 PS=2.096e-05 NRD=0.027 NRS=0.027
MM21 net14 net30 net19 VDDA PE3 W=10u L=1u M=10.0 AD=2.7e-12 AS=3.12e-12 
+ PD=1.054e-05 PS=1.2624e-05 NRD=0.027 NRS=0.027
MM20 GNDA D5 net5 VDDA PE3 W=10u L=350.0n M=2.0 AD=2.7e-12 AS=4.8e-12 
+ PD=1.054e-05 PS=2.096e-05 NRD=0.027 NRS=0.027
MM19 GNDA D4 net4 VDDA PE3 W=10u L=350.0n M=2.0 AD=2.7e-12 AS=4.8e-12 
+ PD=1.054e-05 PS=2.096e-05 NRD=0.027 NRS=0.027
MM18 GNDA D3 net3 VDDA PE3 W=10u L=350.0n M=2.0 AD=2.7e-12 AS=4.8e-12 
+ PD=1.054e-05 PS=2.096e-05 NRD=0.027 NRS=0.027
MM17 GNDA D2 net2 VDDA PE3 W=10u L=350.0n M=2.0 AD=2.7e-12 AS=4.8e-12 
+ PD=1.054e-05 PS=2.096e-05 NRD=0.027 NRS=0.027
MM16 GNDA D1 net1 VDDA PE3 W=10u L=350.0n M=2.0 AD=2.7e-12 AS=4.8e-12 
+ PD=1.054e-05 PS=2.096e-05 NRD=0.027 NRS=0.027
MM15 GNDA D0 net6 VDDA PE3 W=10u L=350.0n M=2.0 AD=2.7e-12 AS=4.8e-12 
+ PD=1.054e-05 PS=2.096e-05 NRD=0.027 NRS=0.027
MM14 net19 net7 VDDA VDDA PE3 W=10u L=10u M=10.0 AD=4.8e-12 AS=4.8e-12 
+ PD=2.096e-05 PS=2.096e-05 NRD=0.027 NRS=0.027
MM22 net7 net12 VDDA VDDA PE3 W=10u L=10u M=8.0 AD=4.8e-12 AS=4.8e-12 
+ PD=2.096e-05 PS=2.096e-05 NRD=0.027 NRS=0.027
MM11 VOUT net30 net5 VDDA PE3 W=10u L=1u M=32.0 AD=2.7e-12 AS=2.83125e-12 
+ PD=1.054e-05 PS=1.11913e-05 NRD=0.027 NRS=0.027
MM10 VOUT net30 net4 VDDA PE3 W=10u L=1u M=16.0 AD=2.7e-12 AS=2.9625e-12 
+ PD=1.054e-05 PS=1.18425e-05 NRD=0.027 NRS=0.027
MM9 VOUT net30 net3 VDDA PE3 W=10u L=1u M=8.0 AD=2.7e-12 AS=3.225e-12 
+ PD=1.054e-05 PS=1.3145e-05 NRD=0.027 NRS=0.027
MM8 VOUT net30 net2 VDDA PE3 W=10u L=1u M=4.0 AD=2.7e-12 AS=3.75e-12 
+ PD=1.054e-05 PS=1.575e-05 NRD=0.027 NRS=0.027
MM7 VOUT net30 net1 VDDA PE3 W=10u L=1u M=2.0 AD=2.7e-12 AS=4.8e-12 
+ PD=1.054e-05 PS=2.096e-05 NRD=0.027 NRS=0.027
MM6 VOUT net30 net6 VDDA PE3 W=10u L=1u M=1.0 AD=4.8e-12 AS=4.8e-12 
+ PD=2.096e-05 PS=2.096e-05 NRD=0.027 NRS=0.027
MM5 net5 net7 VDDA VDDA PE3 W=10u L=10u M=32.0 AD=4.8e-12 AS=4.8e-12 
+ PD=2.096e-05 PS=2.096e-05 NRD=0.027 NRS=0.027
MM4 net4 net7 VDDA VDDA PE3 W=10u L=10u M=16.0 AD=4.8e-12 AS=4.8e-12 
+ PD=2.096e-05 PS=2.096e-05 NRD=0.027 NRS=0.027
MM3 net3 net7 VDDA VDDA PE3 W=10u L=10u M=8.0 AD=4.8e-12 AS=4.8e-12 
+ PD=2.096e-05 PS=2.096e-05 NRD=0.027 NRS=0.027
MM2 net2 net7 VDDA VDDA PE3 W=10u L=10u M=4.0 AD=4.8e-12 AS=4.8e-12 
+ PD=2.096e-05 PS=2.096e-05 NRD=0.027 NRS=0.027
MM1 net1 net7 VDDA VDDA PE3 W=10u L=10u M=2.0 AD=4.8e-12 AS=4.8e-12 
+ PD=2.096e-05 PS=2.096e-05 NRD=0.027 NRS=0.027
MM0 net6 net7 VDDA VDDA PE3 W=10u L=10u M=1.0 AD=4.8e-12 AS=4.8e-12 
+ PD=2.096e-05 PS=2.096e-05 NRD=0.027 NRS=0.027
RR1 GNDA net14 200.001K $SUB=GNDA $[RPP1K1_3] $W=4u $L=822.7u M=1
RR0 GNDA VOUT 52.7974K $SUB=GNDA $[RPP1K1_3] $W=4u $L=217.02u M=1
XM41 A A A A VDDA GNDA / ne3i_6 W=10u L=2u M=4.0 AD=4.8e-12 AS=4.8e-12 
+ NRD=0.027 NRS=0.027 PD=2.096e-05 PS=2.096e-05 par1=4.0
XM12 net7 VREF A A VDDA GNDA / ne3i_6 W=10u L=2u M=16.0 AD=4.8e-12 AS=4.8e-12 
+ NRD=0.027 NRS=0.027 PD=2.096e-05 PS=2.096e-05 par1=16.0
XM24 net12 net14 A A VDDA GNDA / ne3i_6 W=10u L=2u M=16.0 AD=4.8e-12 
+ AS=4.8e-12 NRD=0.027 NRS=0.027 PD=2.096e-05 PS=2.096e-05 par1=16.0
MM40 GNDA GNDA GNDA GNDA NE3 W=10u L=2u M=4.0 AD=4.8e-12 AS=4.8e-12 
+ PD=2.096e-05 PS=2.096e-05 NRD=0.027 NRS=0.027
MM38 A BIAS net15 GNDA NE3 W=10u L=2u M=8.0 AD=2.7e-12 AS=3.225e-12 
+ PD=1.054e-05 PS=1.3145e-05 NRD=0.027 NRS=0.027
MM37 net8 BIAS net13 GNDA NE3 W=10u L=2u M=8.0 AD=2.7e-12 AS=3.225e-12 
+ PD=1.054e-05 PS=1.3145e-05 NRD=0.027 NRS=0.027
MM39 BIAS BIAS net9 GNDA NE3 W=10u L=2u M=8.0 AD=2.7e-12 AS=3.225e-12 
+ PD=1.054e-05 PS=1.3145e-05 NRD=0.027 NRS=0.027
MM34 EN ENABLE GNDA GNDA NE3 W=2u L=350.0n M=1.0 AD=9.6e-13 AS=9.6e-13 
+ PD=4.96e-06 PS=4.96e-06 NRD=0.135 NRS=0.135
MM33 net9 EN GNDA GNDA NE3 W=10u L=350.0n M=4.0 AD=2.7e-12 AS=3.75e-12 
+ PD=1.054e-05 PS=1.575e-05 NRD=0.027 NRS=0.027
MM26 net13 net9 GNDA GNDA NE3 W=10u L=2u M=8.0 AD=4.8e-12 AS=4.8e-12 
+ PD=2.096e-05 PS=2.096e-05 NRD=0.027 NRS=0.027
MM13 net9 net9 GNDA GNDA NE3 W=10u L=2u M=8.0 AD=4.8e-12 AS=4.8e-12 
+ PD=2.096e-05 PS=2.096e-05 NRD=0.027 NRS=0.027
MM25 net15 net9 GNDA GNDA NE3 W=10u L=2u M=8.0 AD=4.8e-12 AS=4.8e-12 
+ PD=2.096e-05 PS=2.096e-05 NRD=0.027 NRS=0.027
MM32 VOUT EN GNDA GNDA NE3 W=10u L=350.0n M=4.0 AD=2.7e-12 AS=3.75e-12 
+ PD=1.054e-05 PS=1.575e-05 NRD=0.027 NRS=0.027
.ENDS

************************************************************************
* Library Name: ASKA_PULSE_GENERATOR
* Cell Name:    pulse_generator
* View Name:    schematic
************************************************************************

.SUBCKT pulse_generator BIAS1 BIAS2 CUR_OUT D<5> D<4> D<3> D<2> D<1> D<0> 
+ ENABLE EXT_FB_RES GNDA GNDHV PULSE_ACTIVE VDD3A VDDHV VREF VSUBHV
*.PININFO BIAS1:B BIAS2:B CUR_OUT:B D<5>:B D<4>:B D<3>:B D<2>:B D<1>:B D<0>:B 
*.PININFO ENABLE:B EXT_FB_RES:B GNDA:B GNDHV:B PULSE_ACTIVE:B VDD3A:B VDDHV:B 
*.PININFO VREF:B VSUBHV:B
XC1 VDD3A GNDA GNDA / mosvc3 W=20u L=20u M=8.0 par1=8.0
XC0 VDD3A GNDA GNDA / mosvc3 W=25.0u L=20u M=4.0 par1=4.0
XI1 BIAS2 ENABLE EXT_FB_RES GNDA GNDHV VDAC CUR_OUT PULSE_ACTIVE VDD3A VDDHV 
+ VSUBHV / current_source_gm_10_en_r
XI0 BIAS1 D<0> D<1> D<2> D<3> D<4> D<5> ENABLE GNDA VDD3A VDAC VREF / 
+ dac6b_amp_n2
.ENDS

************************************************************************
* Library Name: ASKA_CONSTANT_GM
* Cell Name:    constant_gm
* View Name:    schematic
************************************************************************

.SUBCKT constant_gm GNDA OUT1 OUT2 OUT3 VDD3
*.PININFO GNDA:B OUT1:B OUT2:B OUT3:B VDD3:B
MM1 net1 net1 net13 GNDA NE3 W=10u L=2.5u M=2.0 AD=2.7e-12 AS=4.8e-12 
+ PD=1.054e-05 PS=2.096e-05 NRD=0.027 NRS=0.027
MM0 net24 net1 net23 GNDA NE3 W=10u L=2.5u M=2.0 AD=2.7e-12 AS=4.8e-12 
+ PD=1.054e-05 PS=2.096e-05 NRD=0.027 NRS=0.027
MM17 VDD3 VDD3 VDD3 VDD3 PE3 W=10u L=2.5u M=5.0 AD=4.8e-12 AS=4.8e-12 
+ PD=2.096e-05 PS=2.096e-05 NRD=0.027 NRS=0.027
MM16 net47 net17 VDD3 VDD3 PE3 W=10u L=2.5u M=1.0 AD=4.8e-12 AS=4.8e-12 
+ PD=2.096e-05 PS=2.096e-05 NRD=0.027 NRS=0.027
MM15 OUT3 net24 net47 VDD3 PE3 W=10u L=2.5u M=1.0 AD=4.8e-12 AS=4.8e-12 
+ PD=2.096e-05 PS=2.096e-05 NRD=0.027 NRS=0.027
MM14 net2 net2 net24 net24 PE3 W=2u L=10u M=1.0 AD=9.6e-13 AS=9.6e-13 
+ PD=4.96e-06 PS=4.96e-06 NRD=0.135 NRS=0.135
MM13 net40 net17 VDD3 VDD3 PE3 W=10u L=2.5u M=2.0 AD=4.8e-12 AS=4.8e-12 
+ PD=2.096e-05 PS=2.096e-05 NRD=0.027 NRS=0.027
MM11 OUT2 net24 net40 VDD3 PE3 W=10u L=2.5u M=2.0 AD=2.7e-12 AS=4.8e-12 
+ PD=1.054e-05 PS=2.096e-05 NRD=0.027 NRS=0.027
MM8 net1 net1 net2 net2 PE3 W=2u L=10u M=1.0 AD=9.6e-13 AS=9.6e-13 PD=4.96e-06 
+ PS=4.96e-06 NRD=0.135 NRS=0.135
MM7 OUT1 net24 net30 VDD3 PE3 W=10u L=2.5u M=2.0 AD=2.7e-12 AS=4.8e-12 
+ PD=1.054e-05 PS=2.096e-05 NRD=0.027 NRS=0.027
MM6 net30 net17 VDD3 VDD3 PE3 W=10u L=2.5u M=2.0 AD=4.8e-12 AS=4.8e-12 
+ PD=2.096e-05 PS=2.096e-05 NRD=0.027 NRS=0.027
MM5 net1 net24 net18 VDD3 PE3 W=10u L=2.5u M=2.0 AD=2.7e-12 AS=4.8e-12 
+ PD=1.054e-05 PS=2.096e-05 NRD=0.027 NRS=0.027
MM3 net24 net24 net17 VDD3 PE3 W=10u L=2.5u M=2.0 AD=2.7e-12 AS=4.8e-12 
+ PD=1.054e-05 PS=2.096e-05 NRD=0.027 NRS=0.027
MM9 net18 net17 VDD3 VDD3 PE3 W=10u L=2.5u M=2.0 AD=4.8e-12 AS=4.8e-12 
+ PD=2.096e-05 PS=2.096e-05 NRD=0.027 NRS=0.027
MM12 net17 net17 VDD3 VDD3 PE3 W=10u L=2.5u M=2.0 AD=4.8e-12 AS=4.8e-12 
+ PD=2.096e-05 PS=2.096e-05 NRD=0.027 NRS=0.027
RR3 GNDA net25 69999.7 $SUB=VDD3 $[RPP1K1_3] $W=4u $L=287.8u M=1
XM4 net13 net13 GNDA GNDA VDD3 GNDA / ne3i_6 W=10u L=2.5u M=2.0 AD=2.7e-12 
+ AS=4.8e-12 NRD=0.027 NRS=0.027 PD=1.054e-05 PS=2.096e-05 par1=2.0
XM2 net23 net13 net25 net25 VDD3 GNDA / ne3i_6 W=10u L=2.5u M=8.0 AD=2.7e-12 
+ AS=3.225e-12 NRD=0.027 NRS=0.027 PD=1.054e-05 PS=1.3145e-05 par1=8.0
.ENDS

************************************************************************
* Library Name: ASKA_REF_BIAS
* Cell Name:    ref_bias
* View Name:    schematic
************************************************************************

.SUBCKT ref_bias BIAS GNDA OUT1 OUT2 RES_BIAS VDDA VREF
*.PININFO BIAS:B GNDA:B OUT1:B OUT2:B RES_BIAS:B VDDA:B VREF:B
XM7 COM COM COM COM VDDA GNDA / ne3i_6 W=10u L=2u M=4.0 AD=4.8e-12 AS=4.8e-12 
+ NRD=0.027 NRS=0.027 PD=2.096e-05 PS=2.096e-05 par1=4.0
XM12 net4 VREF COM COM VDDA GNDA / ne3i_6 W=10u L=2u M=14.0 AD=4.8e-12 
+ AS=4.8e-12 NRD=0.027 NRS=0.027 PD=2.096e-05 PS=2.096e-05 par1=14.0
XM24 net6 RES_BIAS COM COM VDDA GNDA / ne3i_6 W=10u L=2u M=14.0 AD=4.8e-12 
+ AS=4.8e-12 NRD=0.027 NRS=0.027 PD=2.096e-05 PS=2.096e-05 par1=14.0
MM10 GNDA GNDA GNDA GNDA NE3 W=10u L=5u M=5.0 AD=4.8e-12 AS=4.8e-12 
+ PD=2.096e-05 PS=2.096e-05 NRD=0.027 NRS=0.027
MM9 BIAS BIAS net123 GNDA NE3 W=10u L=2u M=8.0 AD=2.7e-12 AS=3.225e-12 
+ PD=1.054e-05 PS=1.3145e-05 NRD=0.027 NRS=0.027
MM8 COM BIAS net5 GNDA NE3 W=10u L=2u M=8.0 AD=2.7e-12 AS=3.225e-12 
+ PD=1.054e-05 PS=1.3145e-05 NRD=0.027 NRS=0.027
MM26 net7 net123 GNDA GNDA NE3 W=10u L=5u M=1.0 AD=4.8e-12 AS=4.8e-12 
+ PD=2.096e-05 PS=2.096e-05 NRD=0.027 NRS=0.027
MM13 net123 net123 GNDA GNDA NE3 W=10u L=5u M=4.0 AD=4.8e-12 AS=4.8e-12 
+ PD=2.096e-05 PS=2.096e-05 NRD=0.027 NRS=0.027
MM25 net5 net123 GNDA GNDA NE3 W=10u L=5u M=4.0 AD=4.8e-12 AS=4.8e-12 
+ PD=2.096e-05 PS=2.096e-05 NRD=0.027 NRS=0.027
MM6 VDDA VDDA VDDA VDDA PE3 W=10u L=2u M=4.0 AD=4.8e-12 AS=4.8e-12 
+ PD=2.096e-05 PS=2.096e-05 NRD=0.027 NRS=0.027
MM5 VDDA VDDA VDDA VDDA PE3 W=10u L=10u M=4.0 AD=4.8e-12 AS=4.8e-12 
+ PD=2.096e-05 PS=2.096e-05 NRD=0.027 NRS=0.027
MM28 net102 net102 VDDA VDDA PE3 W=10u L=2u M=2.0 AD=2.7e-12 AS=4.8e-12 
+ PD=1.054e-05 PS=2.096e-05 NRD=0.027 NRS=0.027
MM0 net7 net7 net102 VDDA PE3 W=10u L=2u M=2.0 AD=2.7e-12 AS=4.8e-12 
+ PD=1.054e-05 PS=2.096e-05 NRD=0.027 NRS=0.027
MM23 net6 net6 VDDA VDDA PE3 W=10u L=10u M=8.0 AD=4.8e-12 AS=4.8e-12 
+ PD=2.096e-05 PS=2.096e-05 NRD=0.027 NRS=0.027
MM22 net4 net6 VDDA VDDA PE3 W=10u L=10u M=8.0 AD=4.8e-12 AS=4.8e-12 
+ PD=2.096e-05 PS=2.096e-05 NRD=0.027 NRS=0.027
MM14 net8 net4 VDDA VDDA PE3 W=10u L=2u M=12.0 AD=4.8e-12 AS=4.8e-12 
+ PD=2.096e-05 PS=2.096e-05 NRD=0.027 NRS=0.027
MM4 net1 net4 VDDA VDDA PE3 W=10u L=2u M=10.0 AD=4.8e-12 AS=4.8e-12 
+ PD=2.096e-05 PS=2.096e-05 NRD=0.027 NRS=0.027
MM21 RES_BIAS net7 net8 VDDA PE3 W=10u L=1u M=12.0 AD=2.7e-12 AS=3.05e-12 
+ PD=1.054e-05 PS=1.22767e-05 NRD=0.027 NRS=0.027
MM3 OUT2 net7 net1 VDDA PE3 W=10u L=1u M=10.0 AD=2.7e-12 AS=3.12e-12 
+ PD=1.054e-05 PS=1.2624e-05 NRD=0.027 NRS=0.027
MM2 net2 net4 VDDA VDDA PE3 W=10u L=2u M=10.0 AD=4.8e-12 AS=4.8e-12 
+ PD=2.096e-05 PS=2.096e-05 NRD=0.027 NRS=0.027
MM1 OUT1 net7 net2 VDDA PE3 W=10u L=1u M=10.0 AD=2.7e-12 AS=3.12e-12 
+ PD=1.054e-05 PS=1.2624e-05 NRD=0.027 NRS=0.027
CC1 net4 net3 $[CMM5T] area=9e-10 perimeter=120.00000u M=8
RR0 net3 RES_BIAS 124.999K $SUB=GNDA $[RPP1K1_3] $W=4u $L=514.1u M=1
XC2 OUT2 GNDA GNDA / mosvc3 W=30u L=30u M=3.0 par1=3.0
XC0 OUT1 GNDA GNDA / mosvc3 W=30u L=30u M=3.0 par1=3.0
.ENDS

************************************************************************
* Library Name: ASKA_BANDGAP
* Cell Name:    bandgap_su
* View Name:    schematic
************************************************************************

.SUBCKT bandgap_su BIAS GNDA OUT VDD3A
*.PININFO BIAS:B GNDA:B OUT:B VDD3A:B
MM29 GNDA GNDA GNDA GNDA NE3 W=10u L=5u M=4.0 AD=4.8e-12 AS=4.8e-12 
+ PD=2.096e-05 PS=2.096e-05 NRD=0.027 NRS=0.027
MM25 net21 net21 GNDA GNDA NE3 W=1u L=2u M=1.0 AD=4.8e-13 AS=4.8e-13 
+ PD=2.96e-06 PS=2.96e-06 NRD=0.27 NRS=0.27
MM24 VDD3A VDD3A net22 GNDA NE3 W=1u L=2u M=1.0 AD=4.8e-13 AS=4.8e-13 
+ PD=2.96e-06 PS=2.96e-06 NRD=0.27 NRS=0.27
MM23 net22 net22 net21 GNDA NE3 W=1u L=2u M=1.0 AD=4.8e-13 AS=4.8e-13 
+ PD=2.96e-06 PS=2.96e-06 NRD=0.27 NRS=0.27
MM26 GNDA GNDA GNDA GNDA NE3 W=10u L=1u M=4.0 AD=4.8e-12 AS=4.8e-12 
+ PD=2.096e-05 PS=2.096e-05 NRD=0.027 NRS=0.027
MM17 net12 net21 net7 GNDA NE3 W=10u L=1u M=1.0 AD=4.8e-12 AS=4.8e-12 
+ PD=2.096e-05 PS=2.096e-05 NRD=0.027 NRS=0.027
MM16 net10 OUT net7 GNDA NE3 W=10u L=1u M=1.0 AD=4.8e-12 AS=4.8e-12 
+ PD=2.096e-05 PS=2.096e-05 NRD=0.027 NRS=0.027
MM15 net7 net6 GNDA GNDA NE3 W=10u L=1u M=1.0 AD=4.8e-12 AS=4.8e-12 
+ PD=2.096e-05 PS=2.096e-05 NRD=0.027 NRS=0.027
MM14 net1 net6 GNDA GNDA NE3 W=10u L=1u M=1.0 AD=4.8e-12 AS=4.8e-12 
+ PD=2.096e-05 PS=2.096e-05 NRD=0.027 NRS=0.027
MM13 OUT net17 GNDA GNDA NE3 W=10u L=1u M=4.0 AD=2.7e-12 AS=3.75e-12 
+ PD=1.054e-05 PS=1.575e-05 NRD=0.027 NRS=0.027
MM11 net3 BIAS net2 GNDA NE3 W=10u L=1u M=4.0 AD=2.7e-12 AS=3.75e-12 
+ PD=1.054e-05 PS=1.575e-05 NRD=0.027 NRS=0.027
MM9 BIAS BIAS net6 GNDA NE3 W=10u L=1u M=4.0 AD=2.7e-12 AS=3.75e-12 
+ PD=1.054e-05 PS=1.575e-05 NRD=0.027 NRS=0.027
MM8 net2 net6 GNDA GNDA NE3 W=10u L=1u M=4.0 AD=4.8e-12 AS=4.8e-12 
+ PD=2.096e-05 PS=2.096e-05 NRD=0.027 NRS=0.027
MM7 net6 net6 GNDA GNDA NE3 W=10u L=1u M=4.0 AD=4.8e-12 AS=4.8e-12 
+ PD=2.096e-05 PS=2.096e-05 NRD=0.027 NRS=0.027
MM4 net15 net15 GNDA GNDA NE3 W=10u L=5u M=8.0 AD=4.8e-12 AS=4.8e-12 
+ PD=2.096e-05 PS=2.096e-05 NRD=0.027 NRS=0.027
MM2 net17 net15 GNDA GNDA NE3 W=10u L=5u M=8.0 AD=4.8e-12 AS=4.8e-12 
+ PD=2.096e-05 PS=2.096e-05 NRD=0.027 NRS=0.027
MM28 A A A VDD3A PE3 W=10u L=5u M=4.0 AD=4.8e-12 AS=4.8e-12 PD=2.096e-05 
+ PS=2.096e-05 NRD=0.027 NRS=0.027
MM27 VDD3A VDD3A VDD3A VDD3A PE3 W=10u L=1u M=4.0 AD=4.8e-12 AS=4.8e-12 
+ PD=2.096e-05 PS=2.096e-05 NRD=0.027 NRS=0.027
MM22 net11 net20 VDD3A VDD3A PE3 W=10u L=5u M=1.0 AD=4.8e-12 AS=4.8e-12 
+ PD=2.096e-05 PS=2.096e-05 NRD=0.027 NRS=0.027
MM21 net1 net12 net20 VDD3A PE3 W=10u L=5u M=1.0 AD=4.8e-12 AS=4.8e-12 
+ PD=2.096e-05 PS=2.096e-05 NRD=0.027 NRS=0.027
MM20 net20 net20 VDD3A VDD3A PE3 W=10u L=5u M=1.0 AD=4.8e-12 AS=4.8e-12 
+ PD=2.096e-05 PS=2.096e-05 NRD=0.027 NRS=0.027
MM19 net12 net10 VDD3A VDD3A PE3 W=10u L=5u M=1.0 AD=4.8e-12 AS=4.8e-12 
+ PD=2.096e-05 PS=2.096e-05 NRD=0.027 NRS=0.027
MM18 net10 net10 VDD3A VDD3A PE3 W=10u L=5u M=1.0 AD=4.8e-12 AS=4.8e-12 
+ PD=2.096e-05 PS=2.096e-05 NRD=0.027 NRS=0.027
MM12 OUT net16 VDD3A VDD3A PE3 W=10u L=1u M=16.0 AD=4.8e-12 AS=4.8e-12 
+ PD=2.096e-05 PS=2.096e-05 NRD=0.027 NRS=0.027
MM6 net3 net3 net16 VDD3A PE3 W=10u L=1u M=4.0 AD=2.7e-12 AS=3.75e-12 
+ PD=1.054e-05 PS=1.575e-05 NRD=0.027 NRS=0.027
MM1 A net3 net14 VDD3A PE3 W=10u L=1u M=4.0 AD=2.7e-12 AS=3.75e-12 
+ PD=1.054e-05 PS=1.575e-05 NRD=0.027 NRS=0.027
MM0 net16 net16 VDD3A VDD3A PE3 W=10u L=1u M=4.0 AD=4.8e-12 AS=4.8e-12 
+ PD=2.096e-05 PS=2.096e-05 NRD=0.027 NRS=0.027
MM10 net14 net16 VDD3A VDD3A PE3 W=10u L=1u M=4.0 AD=4.8e-12 AS=4.8e-12 
+ PD=2.096e-05 PS=2.096e-05 NRD=0.027 NRS=0.027
MM5 net17 net11 A VDD3A PE3 W=10u L=5u M=8.0 AD=4.8e-12 AS=4.8e-12 
+ PD=2.096e-05 PS=2.096e-05 NRD=0.027 NRS=0.027
MM3 net15 net23 A VDD3A PE3 W=10u L=5u M=8.0 AD=4.8e-12 AS=4.8e-12 
+ PD=2.096e-05 PS=2.096e-05 NRD=0.027 NRS=0.027
QQ6 GNDA GNDA net11 QPVC3 1e-10 M=1
QQ5 GNDA GNDA net9 QPVC3 1e-10 M=31
RR11 net5 OUT 200.032K $SUB=GNDA $[RPP1K1_3] $W=4u $L=822.83u M=1
RR10 net8 OUT 200.032K $SUB=GNDA $[RPP1K1_3] $W=4u $L=822.83u M=1
RR8 net23 net5 200.032K $SUB=GNDA $[RPP1K1_3] $W=4u $L=822.83u M=1
RR7 net9 net23 63000 $SUB=GNDA $[RPP1K1_3] $W=8u $L=521.5u M=1
RR6 net11 net8 200.032K $SUB=GNDA $[RPP1K1_3] $W=4u $L=822.83u M=1
CC1 net17 OUT $[CMM5T] area=9e-10 perimeter=120.00000u M=1
.ENDS

************************************************************************
* Library Name: ASKA_BIAS
* Cell Name:    bias
* View Name:    schematic
************************************************************************

.SUBCKT bias BGAP_REF BIAS1 BIAS2 BIAS3 GNDA RES_BIAS VDDA
*.PININFO BGAP_REF:B BIAS1:B BIAS2:B BIAS3:B GNDA:B RES_BIAS:B VDDA:B
XI1 GNDA net2 net1 BIAS3 VDDA / constant_gm
XI2 net2 GNDA BIAS1 BIAS2 RES_BIAS VDDA BGAP_REF / ref_bias
XC0 VDDA GNDA GNDA / mosvc3 W=25.0u L=30u M=26.0 par1=26.0
XI0 net1 GNDA BGAP_REF VDDA / bandgap_su
.ENDS

************************************************************************
* Library Name: GATES_JI3V
* Cell Name:    invrji3v
* View Name:    schematic
************************************************************************

.SUBCKT invrji3v in out inh_ground_gnd3i inh_power_vdd3i
*.PININFO in:I out:O inh_ground_gnd3i:B inh_power_vdd3i:B
MMP1 out in inh_power_vdd3i inh_power_vdd3i PE3I W=GT_PUW L=GT_PUL M=1.0 
+ AD=4.8e-07*(GT_PUW) AS=4.8e-07*(GT_PUW) PD=2*(4.8e-07+(GT_PUW)) 
+ PS=2.0*(4.8e-07+(GT_PUW)) NRD=2.7e-07/(GT_PUW) NRS=2.7e-07/(GT_PUW)
MMN1 out in inh_ground_gnd3i inh_ground_gnd3i NE3I W=GT_PDW L=GT_PDL M=1.0 
+ AD=4.8e-07*(GT_PDW) AS=4.8e-07*(GT_PDW) PD=2*(4.8e-07+(GT_PDW)) 
+ PS=2.0*(4.8e-07+(GT_PDW)) NRD=2.7e-07/(GT_PDW) NRS=2.7e-07/(GT_PDW)
.ENDS

************************************************************************
* Library Name: GATES_JI3V
* Cell Name:    nand2ji3v
* View Name:    schematic
************************************************************************

.SUBCKT nand2ji3v a b out inh_ground_gnd3i inh_power_vdd3i
*.PININFO a:I b:I out:O inh_ground_gnd3i:B inh_power_vdd3i:B
MMP1 out a inh_power_vdd3i inh_power_vdd3i PE3I W=GT_PUW L=GT_PUL M=1.0 
+ AD=4.8e-07*(GT_PUW) AS=4.8e-07*(GT_PUW) PD=2*(4.8e-07+(GT_PUW)) 
+ PS=2.0*(4.8e-07+(GT_PUW)) NRD=2.7e-07/(GT_PUW) NRS=2.7e-07/(GT_PUW)
MMP2 out b inh_power_vdd3i inh_power_vdd3i PE3I W=GT_PUW L=GT_PUL M=1.0 
+ AD=4.8e-07*(GT_PUW) AS=4.8e-07*(GT_PUW) PD=2*(4.8e-07+(GT_PUW)) 
+ PS=2.0*(4.8e-07+(GT_PUW)) NRD=2.7e-07/(GT_PUW) NRS=2.7e-07/(GT_PUW)
MMN1 out a net25 inh_ground_gnd3i NE3I W=GT_PDW L=GT_PDL M=1.0 
+ AD=4.8e-07*(GT_PDW) AS=4.8e-07*(GT_PDW) PD=2*(4.8e-07+(GT_PDW)) 
+ PS=2.0*(4.8e-07+(GT_PDW)) NRD=2.7e-07/(GT_PDW) NRS=2.7e-07/(GT_PDW)
MMN2 net25 b inh_ground_gnd3i inh_ground_gnd3i NE3I W=GT_PDW L=GT_PDL M=1.0 
+ AD=4.8e-07*(GT_PDW) AS=4.8e-07*(GT_PDW) PD=2*(4.8e-07+(GT_PDW)) 
+ PS=2.0*(4.8e-07+(GT_PDW)) NRD=2.7e-07/(GT_PDW) NRS=2.7e-07/(GT_PDW)
.ENDS

************************************************************************
* Library Name: D_CELLS_JI3V
* Cell Name:    AND2JI3VX0
* View Name:    cmos_sch
************************************************************************

.SUBCKT AND2JI3VX0 A B Q inh_ground_gnd3i inh_power_vdd3i
*.PININFO A:I B:I Q:O inh_ground_gnd3i:B inh_power_vdd3i:B
Xinvr_1 net10 Q inh_ground_gnd3i inh_power_vdd3i / invrji3v GT_PDL=350.00n 
+ GT_PDW=420.00n GT_PUL=300.00n GT_PUW=700.00n
Xnand2_1 A B net10 inh_ground_gnd3i inh_power_vdd3i / nand2ji3v GT_PDL=350.00n 
+ GT_PDW=560.00n GT_PUL=300.00n GT_PUW=700.00n
.ENDS

************************************************************************
* Library Name: D_CELLS_JI3V
* Cell Name:    DFRRQJI3VX1
* View Name:    cmos_sch
************************************************************************

.SUBCKT DFRRQJI3VX1 C D Q RN inh_ground_gnd3i inh_power_vdd3i
*.PININFO C:I D:I RN:I Q:O inh_ground_gnd3i:B inh_power_vdd3i:B
MM25 MQIB RN inh_power_vdd3i inh_power_vdd3i PE3I W=720.0n L=300n M=1.0 
+ AD=3.456e-13 AS=3.456e-13 PD=2.4e-06 PS=2.4e-06 NRD=0.375 NRS=0.375
MM24 MQIB CI net227 inh_power_vdd3i PE3I W=960.0n L=300n M=1.0 AD=4.608e-13 
+ AS=4.608e-13 PD=2.88e-06 PS=2.88e-06 NRD=0.28125 NRS=0.28125
MM58 SQIB RN inh_power_vdd3i inh_power_vdd3i PE3I W=720.0n L=300n M=1.0 
+ AD=3.456e-13 AS=3.456e-13 PD=2.4e-06 PS=2.4e-06 NRD=0.375 NRS=0.375
MM56 MQI MQIB inh_power_vdd3i inh_power_vdd3i PE3I W=720.0n L=300n M=1.0 
+ AD=3.456e-13 AS=3.456e-13 PD=2.4e-06 PS=2.4e-06 NRD=0.375 NRS=0.375
MM30 net183 MQI inh_power_vdd3i inh_power_vdd3i PE3I W=1u L=300n M=1.0 
+ AD=4.8e-13 AS=4.8e-13 PD=2.96e-06 PS=2.96e-06 NRD=0.27 NRS=0.27
MM23 net227 D inh_power_vdd3i inh_power_vdd3i PE3I W=960.0n L=300n M=1.0 
+ AD=4.608e-13 AS=4.608e-13 PD=2.88e-06 PS=2.88e-06 NRD=0.28125 NRS=0.28125
MM59 net033 SQIB inh_power_vdd3i inh_power_vdd3i PE3I W=720.0n L=300n M=1.0 
+ AD=3.456e-13 AS=3.456e-13 PD=2.4e-06 PS=2.4e-06 NRD=0.375 NRS=0.375
MM36 net191 net033 inh_power_vdd3i inh_power_vdd3i PE3I W=420.0n L=300n M=1.0 
+ AD=2.016e-13 AS=2.016e-13 PD=1.8e-06 PS=1.8e-06 NRD=0.642857 NRS=0.642857
MM35 SQIB CI net191 inh_power_vdd3i PE3I W=420.0n L=300n M=1.0 AD=2.016e-13 
+ AS=2.016e-13 PD=1.8e-06 PS=1.8e-06 NRD=0.642857 NRS=0.642857
MM34Zf MQIB CIB net187 inh_power_vdd3i PE3I W=420.0n L=300n M=1.0 AD=2.016e-13 
+ AS=2.016e-13 PD=1.8e-06 PS=1.8e-06 NRD=0.642857 NRS=0.642857
MM33 SQIB CIB net183 inh_power_vdd3i PE3I W=1u L=300n M=1.0 AD=4.8e-13 
+ AS=4.8e-13 PD=2.96e-06 PS=2.96e-06 NRD=0.27 NRS=0.27