* +++++++++++++++++++++++++++++++++++++++++++++++++++++++++ *
* CDL Netlist:                                              *
*                                                           *
* Cell Name  : dac6b_amp_n2                                 *
* Netlisted  : Wed Jun 26 14:49:12 2024                     *
* PVS Version: 23.10-p043 Mon Oct 2 18:09:08 PDT 2023      *
* +++++++++++++++++++++++++++++++++++++++++++++++++++++++++ *
*.LDD
*.DEVTMPLT 0 MN(ne3) nem ndiff(D) p1trm(G) ndiff(S) bulk(B)
*.DEVTMPLT 1 MP(pe3) pem pdiff(D) p1trm(G) pdiff(S) nwtrm(B)
*.DEVTMPLT 2 NE3I_6() nemi_6 ndiff(D) p1trm(G) ndiff(S) pwitrm(B) dnwtrm(NW) bulk(SB)
*.DEVTMPLT 3 D(p_dnw) p_dnw bulk(POS) nwtrm(NEG)
*.DEVTMPLT 4 D(p_ddnw) p_ddnw bulk(POS) dnwtrm(NEG)
*.DEVTMPLT 5 D(p_dipdnwmv) p_dipwmv pwitrm(POS) dnwtrm(NEG)
*.DEVTMPLT 6 D(p_dnw3) p_dnwm bulk(POS) nwtrm(NEG)
*.DEVTMPLT 7 R(rpp1k1_3) rpp1k1_s p1trm(POS) p1trm(NEG) bulk(SUB)

* +++++++++++++++++++++++++++++++++++++++++++++++++++++++++ *
* Sub cell: VIA1_C_CDNS_719427747080                        *
* +++++++++++++++++++++++++++++++++++++++++++++++++++++++++ *
.subckt VIA1_C_CDNS_719427747080 1
** N=1 EP=1 FDC=0
.ends VIA1_C_CDNS_719427747080

* +++++++++++++++++++++++++++++++++++++++++++++++++++++++++ *
* Sub cell: VIA1_C_CDNS_719427747081                        *
* +++++++++++++++++++++++++++++++++++++++++++++++++++++++++ *
.subckt VIA1_C_CDNS_719427747081 1 2
** N=2 EP=2 FDC=0
.ends VIA1_C_CDNS_719427747081

* +++++++++++++++++++++++++++++++++++++++++++++++++++++++++ *
* Sub cell: VIA1_C_CDNS_719427747082                        *
* +++++++++++++++++++++++++++++++++++++++++++++++++++++++++ *
.subckt VIA1_C_CDNS_719427747082 1
** N=1 EP=1 FDC=0
.ends VIA1_C_CDNS_719427747082

* +++++++++++++++++++++++++++++++++++++++++++++++++++++++++ *
* Sub cell: VIA1_C_CDNS_719427747083                        *
* +++++++++++++++++++++++++++++++++++++++++++++++++++++++++ *
.subckt VIA1_C_CDNS_719427747083 1
** N=1 EP=1 FDC=0
.ends VIA1_C_CDNS_719427747083

* +++++++++++++++++++++++++++++++++++++++++++++++++++++++++ *
* Sub cell: VIA1_C_CDNS_719427747084                        *
* +++++++++++++++++++++++++++++++++++++++++++++++++++++++++ *
.subckt VIA1_C_CDNS_719427747084 1
** N=1 EP=1 FDC=0
.ends VIA1_C_CDNS_719427747084

* +++++++++++++++++++++++++++++++++++++++++++++++++++++++++ *
* Sub cell: VIA1_C_CDNS_719427747085                        *
* +++++++++++++++++++++++++++++++++++++++++++++++++++++++++ *
.subckt VIA1_C_CDNS_719427747085 1
** N=1 EP=1 FDC=0
.ends VIA1_C_CDNS_719427747085

* +++++++++++++++++++++++++++++++++++++++++++++++++++++++++ *
* Sub cell: VIA1_C_CDNS_719427747086                        *
* +++++++++++++++++++++++++++++++++++++++++++++++++++++++++ *
.subckt VIA1_C_CDNS_719427747086 1
** N=1 EP=1 FDC=0
.ends VIA1_C_CDNS_719427747086

* +++++++++++++++++++++++++++++++++++++++++++++++++++++++++ *
* Sub cell: VIA2_C_CDNS_719427747087                        *
* +++++++++++++++++++++++++++++++++++++++++++++++++++++++++ *
.subckt VIA2_C_CDNS_719427747087 1
** N=1 EP=1 FDC=0
.ends VIA2_C_CDNS_719427747087

* +++++++++++++++++++++++++++++++++++++++++++++++++++++++++ *
* Sub cell: VIA2_C_CDNS_719427747088                        *
* +++++++++++++++++++++++++++++++++++++++++++++++++++++++++ *
.subckt VIA2_C_CDNS_719427747088 1
** N=1 EP=1 FDC=0
.ends VIA2_C_CDNS_719427747088

* +++++++++++++++++++++++++++++++++++++++++++++++++++++++++ *
* Sub cell: VIA1_C_CDNS_719427747089                        *
* +++++++++++++++++++++++++++++++++++++++++++++++++++++++++ *
.subckt VIA1_C_CDNS_719427747089 1
** N=1 EP=1 FDC=0
.ends VIA1_C_CDNS_719427747089

* +++++++++++++++++++++++++++++++++++++++++++++++++++++++++ *
* Sub cell: VIA1_C_CDNS_7194277470810                       *
* +++++++++++++++++++++++++++++++++++++++++++++++++++++++++ *
.subckt VIA1_C_CDNS_7194277470810 1
** N=1 EP=1 FDC=0
.ends VIA1_C_CDNS_7194277470810

* +++++++++++++++++++++++++++++++++++++++++++++++++++++++++ *
* Sub cell: VIA1_C_CDNS_7194277470811                       *
* +++++++++++++++++++++++++++++++++++++++++++++++++++++++++ *
.subckt VIA1_C_CDNS_7194277470811 1
** N=1 EP=1 FDC=0
.ends VIA1_C_CDNS_7194277470811

* +++++++++++++++++++++++++++++++++++++++++++++++++++++++++ *
* Sub cell: VIA2_C_CDNS_7194277470812                       *
* +++++++++++++++++++++++++++++++++++++++++++++++++++++++++ *
.subckt VIA2_C_CDNS_7194277470812 1
** N=1 EP=1 FDC=0
.ends VIA2_C_CDNS_7194277470812

* +++++++++++++++++++++++++++++++++++++++++++++++++++++++++ *
* Sub cell: VIA1_C_CDNS_7194277470813                       *
* +++++++++++++++++++++++++++++++++++++++++++++++++++++++++ *
.subckt VIA1_C_CDNS_7194277470813 1
** N=1 EP=1 FDC=0
.ends VIA1_C_CDNS_7194277470813

* +++++++++++++++++++++++++++++++++++++++++++++++++++++++++ *
* Sub cell: VIA2_C_CDNS_7194277470814                       *
* +++++++++++++++++++++++++++++++++++++++++++++++++++++++++ *
.subckt VIA2_C_CDNS_7194277470814 1
** N=1 EP=1 FDC=0
.ends VIA2_C_CDNS_7194277470814

* +++++++++++++++++++++++++++++++++++++++++++++++++++++++++ *
* Sub cell: VIA1_C_CDNS_7194277470816                       *
* +++++++++++++++++++++++++++++++++++++++++++++++++++++++++ *
.subckt VIA1_C_CDNS_7194277470816 1
** N=1 EP=1 FDC=0
.ends VIA1_C_CDNS_7194277470816

* +++++++++++++++++++++++++++++++++++++++++++++++++++++++++ *
* Sub cell: VIA2_C_CDNS_7194277470817                       *
* +++++++++++++++++++++++++++++++++++++++++++++++++++++++++ *
.subckt VIA2_C_CDNS_7194277470817 1
** N=1 EP=1 FDC=0
.ends VIA2_C_CDNS_7194277470817

* +++++++++++++++++++++++++++++++++++++++++++++++++++++++++ *
* Sub cell: VIA1_C_CDNS_7194277470818                       *
* +++++++++++++++++++++++++++++++++++++++++++++++++++++++++ *
.subckt VIA1_C_CDNS_7194277470818 1
** N=1 EP=1 FDC=0
.ends VIA1_C_CDNS_7194277470818

* +++++++++++++++++++++++++++++++++++++++++++++++++++++++++ *
* Sub cell: VIA3_C_CDNS_7194277470819                       *
* +++++++++++++++++++++++++++++++++++++++++++++++++++++++++ *
.subckt VIA3_C_CDNS_7194277470819 1
** N=1 EP=1 FDC=0
.ends VIA3_C_CDNS_7194277470819

* +++++++++++++++++++++++++++++++++++++++++++++++++++++++++ *
* Sub cell: VIA2_C_CDNS_7194277470820                       *
* +++++++++++++++++++++++++++++++++++++++++++++++++++++++++ *
.subckt VIA2_C_CDNS_7194277470820 1
** N=1 EP=1 FDC=0
.ends VIA2_C_CDNS_7194277470820

* +++++++++++++++++++++++++++++++++++++++++++++++++++++++++ *
* Sub cell: VIA1_C_CDNS_7194277470822                       *
* +++++++++++++++++++++++++++++++++++++++++++++++++++++++++ *
.subckt VIA1_C_CDNS_7194277470822 1
** N=1 EP=1 FDC=0
.ends VIA1_C_CDNS_7194277470822

* +++++++++++++++++++++++++++++++++++++++++++++++++++++++++ *
* Sub cell: VIA1_C_CDNS_7194277470823                       *
* +++++++++++++++++++++++++++++++++++++++++++++++++++++++++ *
.subckt VIA1_C_CDNS_7194277470823 1
** N=1 EP=1 FDC=0
.ends VIA1_C_CDNS_7194277470823

* +++++++++++++++++++++++++++++++++++++++++++++++++++++++++ *
* Sub cell: VIA1_C_CDNS_7194277470824                       *
* +++++++++++++++++++++++++++++++++++++++++++++++++++++++++ *
.subckt VIA1_C_CDNS_7194277470824 1
** N=1 EP=1 FDC=0
.ends VIA1_C_CDNS_7194277470824

* +++++++++++++++++++++++++++++++++++++++++++++++++++++++++ *
* Sub cell: VIA2_C_CDNS_7194277470825                       *
* +++++++++++++++++++++++++++++++++++++++++++++++++++++++++ *
.subckt VIA2_C_CDNS_7194277470825 1
** N=1 EP=1 FDC=0
.ends VIA2_C_CDNS_7194277470825

* +++++++++++++++++++++++++++++++++++++++++++++++++++++++++ *
* Sub cell: VIA1_C_CDNS_7194277470826                       *
* +++++++++++++++++++++++++++++++++++++++++++++++++++++++++ *
.subckt VIA1_C_CDNS_7194277470826 1 2
** N=2 EP=2 FDC=0
.ends VIA1_C_CDNS_7194277470826

* +++++++++++++++++++++++++++++++++++++++++++++++++++++++++ *
* Sub cell: VIA2_C_CDNS_7194277470827                       *
* +++++++++++++++++++++++++++++++++++++++++++++++++++++++++ *
.subckt VIA2_C_CDNS_7194277470827 1 2
** N=2 EP=2 FDC=0
.ends VIA2_C_CDNS_7194277470827

* +++++++++++++++++++++++++++++++++++++++++++++++++++++++++ *
* Sub cell: VIA1_C_CDNS_7194277470828                       *
* +++++++++++++++++++++++++++++++++++++++++++++++++++++++++ *
.subckt VIA1_C_CDNS_7194277470828 1
** N=1 EP=1 FDC=0
.ends VIA1_C_CDNS_7194277470828

* +++++++++++++++++++++++++++++++++++++++++++++++++++++++++ *
* Sub cell: VIA1_C_CDNS_7194277470832                       *
* +++++++++++++++++++++++++++++++++++++++++++++++++++++++++ *
.subckt VIA1_C_CDNS_7194277470832 1
** N=1 EP=1 FDC=0
.ends VIA1_C_CDNS_7194277470832

* +++++++++++++++++++++++++++++++++++++++++++++++++++++++++ *
* Sub cell: VIA2_C_CDNS_7194277470833                       *
* +++++++++++++++++++++++++++++++++++++++++++++++++++++++++ *
.subckt VIA2_C_CDNS_7194277470833 1
** N=1 EP=1 FDC=0
.ends VIA2_C_CDNS_7194277470833

* +++++++++++++++++++++++++++++++++++++++++++++++++++++++++ *
* Sub cell: VIA2_C_CDNS_7194277470834                       *
* +++++++++++++++++++++++++++++++++++++++++++++++++++++++++ *
.subckt VIA2_C_CDNS_7194277470834 1
** N=1 EP=1 FDC=0
.ends VIA2_C_CDNS_7194277470834

* +++++++++++++++++++++++++++++++++++++++++++++++++++++++++ *
* Sub cell: VIA3_C_CDNS_7194277470838                       *
* +++++++++++++++++++++++++++++++++++++++++++++++++++++++++ *
.subckt VIA3_C_CDNS_7194277470838 1
** N=1 EP=1 FDC=0
.ends VIA3_C_CDNS_7194277470838

* +++++++++++++++++++++++++++++++++++++++++++++++++++++++++ *
* Sub cell: VIA3_C_CDNS_7194277470840                       *
* +++++++++++++++++++++++++++++++++++++++++++++++++++++++++ *
.subckt VIA3_C_CDNS_7194277470840 1
** N=1 EP=1 FDC=0
.ends VIA3_C_CDNS_7194277470840

* +++++++++++++++++++++++++++++++++++++++++++++++++++++++++ *
* Sub cell: VIA1_C_CDNS_7194277470843                       *
* +++++++++++++++++++++++++++++++++++++++++++++++++++++++++ *
.subckt VIA1_C_CDNS_7194277470843 1
** N=1 EP=1 FDC=0
.ends VIA1_C_CDNS_7194277470843

* +++++++++++++++++++++++++++++++++++++++++++++++++++++++++ *
* Sub cell: VIA2_C_CDNS_7194277470846                       *
* +++++++++++++++++++++++++++++++++++++++++++++++++++++++++ *
.subckt VIA2_C_CDNS_7194277470846 1
** N=1 EP=1 FDC=0
.ends VIA2_C_CDNS_7194277470846

* +++++++++++++++++++++++++++++++++++++++++++++++++++++++++ *
* Sub cell: pe3_CDNS_719427747080                           *
* +++++++++++++++++++++++++++++++++++++++++++++++++++++++++ *
.subckt pe3_CDNS_719427747080 1 2 3 4
*.DEVICECLIMB
** N=4 EP=4 FDC=1
M0 3 2 1 1 pe3 L=1e-05 W=1e-05 AD=4.8e-12 AS=4.8e-12 PD=2.096e-05 PS=2.096e-05 $X=0 $Y=0 $dt=1
.ends pe3_CDNS_719427747080

* +++++++++++++++++++++++++++++++++++++++++++++++++++++++++ *
* Sub cell: pe3_CDNS_719427747081                           *
* +++++++++++++++++++++++++++++++++++++++++++++++++++++++++ *
.subckt pe3_CDNS_719427747081 1 2 3 4 5
** N=5 EP=5 FDC=2
M0 3 2 1 4 pe3 L=1e-06 W=1e-05 AD=4.8e-12 AS=4.8e-12 PD=2.096e-05 PS=2.096e-05 $X=0 $Y=0 $dt=1
D1 5 4 p_dnw3 AREA=4.84812e-11 PJ=0 perimeter=0 $X=-1510 $Y=-1030 $dt=6
.ends pe3_CDNS_719427747081

* +++++++++++++++++++++++++++++++++++++++++++++++++++++++++ *
* Sub cell: pe3_CDNS_719427747082                           *
* +++++++++++++++++++++++++++++++++++++++++++++++++++++++++ *
.subckt pe3_CDNS_719427747082 1 2 3 4 5
** N=5 EP=5 FDC=3
M0 3 2 1 4 pe3 L=1e-06 W=1e-05 AD=2.7e-12 AS=4.8e-12 PD=1.054e-05 PS=2.096e-05 $X=0 $Y=0 $dt=1
M1 1 2 3 4 pe3 L=1e-06 W=1e-05 AD=4.8e-12 AS=2.7e-12 PD=2.096e-05 PS=1.054e-05 $X=1540 $Y=0 $dt=1
D2 5 4 p_dnw3 AREA=6.70536e-11 PJ=0 perimeter=0 $X=-1510 $Y=-1030 $dt=6
.ends pe3_CDNS_719427747082

* +++++++++++++++++++++++++++++++++++++++++++++++++++++++++ *
* Sub cell: pe3_CDNS_719427747083                           *
* +++++++++++++++++++++++++++++++++++++++++++++++++++++++++ *
.subckt pe3_CDNS_719427747083 1 2 3 4 5
** N=5 EP=5 FDC=5
M0 3 2 1 4 pe3 L=1e-06 W=1e-05 AD=2.7e-12 AS=4.8e-12 PD=1.054e-05 PS=2.096e-05 $X=0 $Y=0 $dt=1
M1 1 2 3 4 pe3 L=1e-06 W=1e-05 AD=2.7e-12 AS=2.7e-12 PD=1.054e-05 PS=1.054e-05 $X=1540 $Y=0 $dt=1
M2 3 2 1 4 pe3 L=1e-06 W=1e-05 AD=2.7e-12 AS=2.7e-12 PD=1.054e-05 PS=1.054e-05 $X=3080 $Y=0 $dt=1
M3 1 2 3 4 pe3 L=1e-06 W=1e-05 AD=4.8e-12 AS=2.7e-12 PD=2.096e-05 PS=1.054e-05 $X=4620 $Y=0 $dt=1
D4 5 4 p_dnw3 AREA=1.04198e-10 PJ=0 perimeter=0 $X=-1510 $Y=-1030 $dt=6
.ends pe3_CDNS_719427747083

* +++++++++++++++++++++++++++++++++++++++++++++++++++++++++ *
* Sub cell: pe3_CDNS_719427747084                           *
* +++++++++++++++++++++++++++++++++++++++++++++++++++++++++ *
.subckt pe3_CDNS_719427747084 1 2 3 4 5
** N=5 EP=5 FDC=9
M0 3 2 1 4 pe3 L=1e-06 W=1e-05 AD=2.7e-12 AS=4.8e-12 PD=1.054e-05 PS=2.096e-05 $X=0 $Y=0 $dt=1
M1 1 2 3 4 pe3 L=1e-06 W=1e-05 AD=2.7e-12 AS=2.7e-12 PD=1.054e-05 PS=1.054e-05 $X=1540 $Y=0 $dt=1
M2 3 2 1 4 pe3 L=1e-06 W=1e-05 AD=2.7e-12 AS=2.7e-12 PD=1.054e-05 PS=1.054e-05 $X=3080 $Y=0 $dt=1
M3 1 2 3 4 pe3 L=1e-06 W=1e-05 AD=2.7e-12 AS=2.7e-12 PD=1.054e-05 PS=1.054e-05 $X=4620 $Y=0 $dt=1
M4 3 2 1 4 pe3 L=1e-06 W=1e-05 AD=2.7e-12 AS=2.7e-12 PD=1.054e-05 PS=1.054e-05 $X=6160 $Y=0 $dt=1
M5 1 2 3 4 pe3 L=1e-06 W=1e-05 AD=2.7e-12 AS=2.7e-12 PD=1.054e-05 PS=1.054e-05 $X=7700 $Y=0 $dt=1
M6 3 2 1 4 pe3 L=1e-06 W=1e-05 AD=2.7e-12 AS=2.7e-12 PD=1.054e-05 PS=1.054e-05 $X=9240 $Y=0 $dt=1
M7 1 2 3 4 pe3 L=1e-06 W=1e-05 AD=4.8e-12 AS=2.7e-12 PD=2.096e-05 PS=1.054e-05 $X=10780 $Y=0 $dt=1
D8 5 4 p_dnw3 AREA=1.78488e-10 PJ=0 perimeter=0 $X=-1510 $Y=-1030 $dt=6
.ends pe3_CDNS_719427747084

* +++++++++++++++++++++++++++++++++++++++++++++++++++++++++ *
* Sub cell: pe3_CDNS_719427747085                           *
* +++++++++++++++++++++++++++++++++++++++++++++++++++++++++ *
.subckt pe3_CDNS_719427747085 1 2 3 4 5
** N=5 EP=5 FDC=17
M0 3 2 1 4 pe3 L=1e-06 W=1e-05 AD=2.7e-12 AS=4.8e-12 PD=1.054e-05 PS=2.096e-05 $X=0 $Y=0 $dt=1
M1 1 2 3 4 pe3 L=1e-06 W=1e-05 AD=2.7e-12 AS=2.7e-12 PD=1.054e-05 PS=1.054e-05 $X=1540 $Y=0 $dt=1
M2 3 2 1 4 pe3 L=1e-06 W=1e-05 AD=2.7e-12 AS=2.7e-12 PD=1.054e-05 PS=1.054e-05 $X=3080 $Y=0 $dt=1
M3 1 2 3 4 pe3 L=1e-06 W=1e-05 AD=2.7e-12 AS=2.7e-12 PD=1.054e-05 PS=1.054e-05 $X=4620 $Y=0 $dt=1
M4 3 2 1 4 pe3 L=1e-06 W=1e-05 AD=2.7e-12 AS=2.7e-12 PD=1.054e-05 PS=1.054e-05 $X=6160 $Y=0 $dt=1
M5 1 2 3 4 pe3 L=1e-06 W=1e-05 AD=2.7e-12 AS=2.7e-12 PD=1.054e-05 PS=1.054e-05 $X=7700 $Y=0 $dt=1
M6 3 2 1 4 pe3 L=1e-06 W=1e-05 AD=2.7e-12 AS=2.7e-12 PD=1.054e-05 PS=1.054e-05 $X=9240 $Y=0 $dt=1
M7 1 2 3 4 pe3 L=1e-06 W=1e-05 AD=2.7e-12 AS=2.7e-12 PD=1.054e-05 PS=1.054e-05 $X=10780 $Y=0 $dt=1
M8 3 2 1 4 pe3 L=1e-06 W=1e-05 AD=2.7e-12 AS=2.7e-12 PD=1.054e-05 PS=1.054e-05 $X=12320 $Y=0 $dt=1
M9 1 2 3 4 pe3 L=1e-06 W=1e-05 AD=2.7e-12 AS=2.7e-12 PD=1.054e-05 PS=1.054e-05 $X=13860 $Y=0 $dt=1
M10 3 2 1 4 pe3 L=1e-06 W=1e-05 AD=2.7e-12 AS=2.7e-12 PD=1.054e-05 PS=1.054e-05 $X=15400 $Y=0 $dt=1
M11 1 2 3 4 pe3 L=1e-06 W=1e-05 AD=2.7e-12 AS=2.7e-12 PD=1.054e-05 PS=1.054e-05 $X=16940 $Y=0 $dt=1
M12 3 2 1 4 pe3 L=1e-06 W=1e-05 AD=2.7e-12 AS=2.7e-12 PD=1.054e-05 PS=1.054e-05 $X=18480 $Y=0 $dt=1
M13 1 2 3 4 pe3 L=1e-06 W=1e-05 AD=2.7e-12 AS=2.7e-12 PD=1.054e-05 PS=1.054e-05 $X=20020 $Y=0 $dt=1
M14 3 2 1 4 pe3 L=1e-06 W=1e-05 AD=2.7e-12 AS=2.7e-12 PD=1.054e-05 PS=1.054e-05 $X=21560 $Y=0 $dt=1
M15 1 2 3 4 pe3 L=1e-06 W=1e-05 AD=4.8e-12 AS=2.7e-12 PD=2.096e-05 PS=1.054e-05 $X=23100 $Y=0 $dt=1
D16 5 4 p_dnw3 AREA=3.27067e-10 PJ=0 perimeter=0 $X=-1510 $Y=-1030 $dt=6
.ends pe3_CDNS_719427747085

* +++++++++++++++++++++++++++++++++++++++++++++++++++++++++ *
* Sub cell: pe3_CDNS_719427747086                           *
* +++++++++++++++++++++++++++++++++++++++++++++++++++++++++ *
.subckt pe3_CDNS_719427747086 1 2 3 4 5
** N=5 EP=5 FDC=33
M0 3 2 1 4 pe3 L=1e-06 W=1e-05 AD=2.7e-12 AS=4.8e-12 PD=1.054e-05 PS=2.096e-05 $X=0 $Y=0 $dt=1
M1 1 2 3 4 pe3 L=1e-06 W=1e-05 AD=2.7e-12 AS=2.7e-12 PD=1.054e-05 PS=1.054e-05 $X=1540 $Y=0 $dt=1
M2 3 2 1 4 pe3 L=1e-06 W=1e-05 AD=2.7e-12 AS=2.7e-12 PD=1.054e-05 PS=1.054e-05 $X=3080 $Y=0 $dt=1
M3 1 2 3 4 pe3 L=1e-06 W=1e-05 AD=2.7e-12 AS=2.7e-12 PD=1.054e-05 PS=1.054e-05 $X=4620 $Y=0 $dt=1
M4 3 2 1 4 pe3 L=1e-06 W=1e-05 AD=2.7e-12 AS=2.7e-12 PD=1.054e-05 PS=1.054e-05 $X=6160 $Y=0 $dt=1
M5 1 2 3 4 pe3 L=1e-06 W=1e-05 AD=2.7e-12 AS=2.7e-12 PD=1.054e-05 PS=1.054e-05 $X=7700 $Y=0 $dt=1
M6 3 2 1 4 pe3 L=1e-06 W=1e-05 AD=2.7e-12 AS=2.7e-12 PD=1.054e-05 PS=1.054e-05 $X=9240 $Y=0 $dt=1
M7 1 2 3 4 pe3 L=1e-06 W=1e-05 AD=2.7e-12 AS=2.7e-12 PD=1.054e-05 PS=1.054e-05 $X=10780 $Y=0 $dt=1
M8 3 2 1 4 pe3 L=1e-06 W=1e-05 AD=2.7e-12 AS=2.7e-12 PD=1.054e-05 PS=1.054e-05 $X=12320 $Y=0 $dt=1
M9 1 2 3 4 pe3 L=1e-06 W=1e-05 AD=2.7e-12 AS=2.7e-12 PD=1.054e-05 PS=1.054e-05 $X=13860 $Y=0 $dt=1
M10 3 2 1 4 pe3 L=1e-06 W=1e-05 AD=2.7e-12 AS=2.7e-12 PD=1.054e-05 PS=1.054e-05 $X=15400 $Y=0 $dt=1
M11 1 2 3 4 pe3 L=1e-06 W=1e-05 AD=2.7e-12 AS=2.7e-12 PD=1.054e-05 PS=1.054e-05 $X=16940 $Y=0 $dt=1
M12 3 2 1 4 pe3 L=1e-06 W=1e-05 AD=2.7e-12 AS=2.7e-12 PD=1.054e-05 PS=1.054e-05 $X=18480 $Y=0 $dt=1
M13 1 2 3 4 pe3 L=1e-06 W=1e-05 AD=2.7e-12 AS=2.7e-12 PD=1.054e-05 PS=1.054e-05 $X=20020 $Y=0 $dt=1
M14 3 2 1 4 pe3 L=1e-06 W=1e-05 AD=2.7e-12 AS=2.7e-12 PD=1.054e-05 PS=1.054e-05 $X=21560 $Y=0 $dt=1
M15 1 2 3 4 pe3 L=1e-06 W=1e-05 AD=2.7e-12 AS=2.7e-12 PD=1.054e-05 PS=1.054e-05 $X=23100 $Y=0 $dt=1
M16 3 2 1 4 pe3 L=1e-06 W=1e-05 AD=2.7e-12 AS=2.7e-12 PD=1.054e-05 PS=1.054e-05 $X=24640 $Y=0 $dt=1
M17 1 2 3 4 pe3 L=1e-06 W=1e-05 AD=2.7e-12 AS=2.7e-12 PD=1.054e-05 PS=1.054e-05 $X=26180 $Y=0 $dt=1
M18 3 2 1 4 pe3 L=1e-06 W=1e-05 AD=2.7e-12 AS=2.7e-12 PD=1.054e-05 PS=1.054e-05 $X=27720 $Y=0 $dt=1
M19 1 2 3 4 pe3 L=1e-06 W=1e-05 AD=2.7e-12 AS=2.7e-12 PD=1.054e-05 PS=1.054e-05 $X=29260 $Y=0 $dt=1
M20 3 2 1 4 pe3 L=1e-06 W=1e-05 AD=2.7e-12 AS=2.7e-12 PD=1.054e-05 PS=1.054e-05 $X=30800 $Y=0 $dt=1
M21 1 2 3 4 pe3 L=1e-06 W=1e-05 AD=2.7e-12 AS=2.7e-12 PD=1.054e-05 PS=1.054e-05 $X=32340 $Y=0 $dt=1
M22 3 2 1 4 pe3 L=1e-06 W=1e-05 AD=2.7e-12 AS=2.7e-12 PD=1.054e-05 PS=1.054e-05 $X=33880 $Y=0 $dt=1
M23 1 2 3 4 pe3 L=1e-06 W=1e-05 AD=2.7e-12 AS=2.7e-12 PD=1.054e-05 PS=1.054e-05 $X=35420 $Y=0 $dt=1
M24 3 2 1 4 pe3 L=1e-06 W=1e-05 AD=2.7e-12 AS=2.7e-12 PD=1.054e-05 PS=1.054e-05 $X=36960 $Y=0 $dt=1
M25 1 2 3 4 pe3 L=1e-06 W=1e-05 AD=2.7e-12 AS=2.7e-12 PD=1.054e-05 PS=1.054e-05 $X=38500 $Y=0 $dt=1
M26 3 2 1 4 pe3 L=1e-06 W=1e-05 AD=2.7e-12 AS=2.7e-12 PD=1.054e-05 PS=1.054e-05 $X=40040 $Y=0 $dt=1
M27 1 2 3 4 pe3 L=1e-06 W=1e-05 AD=2.7e-12 AS=2.7e-12 PD=1.054e-05 PS=1.054e-05 $X=41580 $Y=0 $dt=1
M28 3 2 1 4 pe3 L=1e-06 W=1e-05 AD=2.7e-12 AS=2.7e-12 PD=1.054e-05 PS=1.054e-05 $X=43120 $Y=0 $dt=1
M29 1 2 3 4 pe3 L=1e-06 W=1e-05 AD=2.7e-12 AS=2.7e-12 PD=1.054e-05 PS=1.054e-05 $X=44660 $Y=0 $dt=1
M30 3 2 1 4 pe3 L=1e-06 W=1e-05 AD=2.7e-12 AS=2.7e-12 PD=1.054e-05 PS=1.054e-05 $X=46200 $Y=0 $dt=1
M31 1 2 3 4 pe3 L=1e-06 W=1e-05 AD=4.8e-12 AS=2.7e-12 PD=2.096e-05 PS=1.054e-05 $X=47740 $Y=0 $dt=1
D32 5 4 p_dnw3 AREA=6.24226e-10 PJ=0 perimeter=0 $X=-1510 $Y=-1030 $dt=6
.ends pe3_CDNS_719427747086

* +++++++++++++++++++++++++++++++++++++++++++++++++++++++++ *
* Sub cell: rpp1k1_3_CDNS_719427747087                      *
* +++++++++++++++++++++++++++++++++++++++++++++++++++++++++ *
.subckt rpp1k1_3_CDNS_719427747087 1 2
** N=2 EP=2 FDC=1
R0 2 1 L=0.00021702 W=4e-06 $[rpp1k1_3] $SUB=2 $X=-4220 $Y=0 $dt=7
.ends rpp1k1_3_CDNS_719427747087

* +++++++++++++++++++++++++++++++++++++++++++++++++++++++++ *
* Sub cell: pe3_CDNS_719427747088                           *
* +++++++++++++++++++++++++++++++++++++++++++++++++++++++++ *
.subckt pe3_CDNS_719427747088 1 2 3 4 5
** N=5 EP=5 FDC=11
M0 3 2 1 4 pe3 L=1e-06 W=1e-05 AD=2.7e-12 AS=4.8e-12 PD=1.054e-05 PS=2.096e-05 $X=0 $Y=0 $dt=1
M1 1 2 3 4 pe3 L=1e-06 W=1e-05 AD=2.7e-12 AS=2.7e-12 PD=1.054e-05 PS=1.054e-05 $X=1540 $Y=0 $dt=1
M2 3 2 1 4 pe3 L=1e-06 W=1e-05 AD=2.7e-12 AS=2.7e-12 PD=1.054e-05 PS=1.054e-05 $X=3080 $Y=0 $dt=1
M3 1 2 3 4 pe3 L=1e-06 W=1e-05 AD=2.7e-12 AS=2.7e-12 PD=1.054e-05 PS=1.054e-05 $X=4620 $Y=0 $dt=1
M4 3 2 1 4 pe3 L=1e-06 W=1e-05 AD=2.7e-12 AS=2.7e-12 PD=1.054e-05 PS=1.054e-05 $X=6160 $Y=0 $dt=1
M5 1 2 3 4 pe3 L=1e-06 W=1e-05 AD=2.7e-12 AS=2.7e-12 PD=1.054e-05 PS=1.054e-05 $X=7700 $Y=0 $dt=1
M6 3 2 1 4 pe3 L=1e-06 W=1e-05 AD=2.7e-12 AS=2.7e-12 PD=1.054e-05 PS=1.054e-05 $X=9240 $Y=0 $dt=1
M7 1 2 3 4 pe3 L=1e-06 W=1e-05 AD=2.7e-12 AS=2.7e-12 PD=1.054e-05 PS=1.054e-05 $X=10780 $Y=0 $dt=1
M8 3 2 1 4 pe3 L=1e-06 W=1e-05 AD=2.7e-12 AS=2.7e-12 PD=1.054e-05 PS=1.054e-05 $X=12320 $Y=0 $dt=1
M9 1 2 3 4 pe3 L=1e-06 W=1e-05 AD=4.8e-12 AS=2.7e-12 PD=2.096e-05 PS=1.054e-05 $X=13860 $Y=0 $dt=1
D10 5 4 p_dnw3 AREA=2.15633e-10 PJ=0 perimeter=0 $X=-1510 $Y=-1030 $dt=6
.ends pe3_CDNS_719427747088

* +++++++++++++++++++++++++++++++++++++++++++++++++++++++++ *
* Sub cell: rpp1k1_3_CDNS_719427747089                      *
* +++++++++++++++++++++++++++++++++++++++++++++++++++++++++ *
.subckt rpp1k1_3_CDNS_719427747089 1 2
** N=2 EP=2 FDC=1
R0 2 1 L=0.0008227 W=4e-06 $[rpp1k1_3] $SUB=2 $X=-4220 $Y=0 $dt=7
.ends rpp1k1_3_CDNS_719427747089

* +++++++++++++++++++++++++++++++++++++++++++++++++++++++++ *
* Sub cell: pe3_CDNS_7194277470810                          *
* +++++++++++++++++++++++++++++++++++++++++++++++++++++++++ *
.subckt pe3_CDNS_7194277470810 1 2 3
** N=3 EP=3 FDC=2
M0 2 2 1 1 pe3 L=2e-05 W=1e-05 AD=4.8e-12 AS=4.8e-12 PD=2.096e-05 PS=2.096e-05 $X=0 $Y=0 $dt=1
D1 3 1 p_dnw3 AREA=2.77621e-10 PJ=0 perimeter=0 $X=-1510 $Y=-1030 $dt=6
.ends pe3_CDNS_7194277470810

* +++++++++++++++++++++++++++++++++++++++++++++++++++++++++ *
* Sub cell: pe3_CDNS_7194277470811                          *
* +++++++++++++++++++++++++++++++++++++++++++++++++++++++++ *
.subckt pe3_CDNS_7194277470811 1 2 3 4
*.DEVICECLIMB
** N=4 EP=4 FDC=1
M0 3 2 1 1 pe3 L=3e-07 W=6e-06 AD=2.88e-12 AS=2.88e-12 PD=1.296e-05 PS=1.296e-05 $X=0 $Y=0 $dt=1
.ends pe3_CDNS_7194277470811

* +++++++++++++++++++++++++++++++++++++++++++++++++++++++++ *
* Sub cell: pe3_CDNS_7194277470812                          *
* +++++++++++++++++++++++++++++++++++++++++++++++++++++++++ *
.subckt pe3_CDNS_7194277470812 1 2 3 4
** N=4 EP=4 FDC=3
M0 3 2 1 4 pe3 L=3.5e-07 W=1e-05 AD=2.7e-12 AS=4.8e-12 PD=1.054e-05 PS=2.096e-05 $X=0 $Y=0 $dt=1
M1 1 2 3 4 pe3 L=3.5e-07 W=1e-05 AD=4.8e-12 AS=2.7e-12 PD=2.096e-05 PS=1.054e-05 $X=890 $Y=0 $dt=1
D2 3 4 p_dnw3 AREA=5.13756e-11 PJ=0 perimeter=0 $X=-1510 $Y=-1030 $dt=6
.ends pe3_CDNS_7194277470812

* +++++++++++++++++++++++++++++++++++++++++++++++++++++++++ *
* Sub cell: ne3_CDNS_7194277470813                          *
* +++++++++++++++++++++++++++++++++++++++++++++++++++++++++ *
.subckt ne3_CDNS_7194277470813 1 2 3 4
** N=4 EP=4 FDC=8
M0 3 2 1 4 ne3 L=2e-06 W=1e-05 AD=2.7e-12 AS=4.8e-12 PD=1.054e-05 PS=2.096e-05 $X=0 $Y=0 $dt=0
M1 1 2 3 4 ne3 L=2e-06 W=1e-05 AD=2.7e-12 AS=2.7e-12 PD=1.054e-05 PS=1.054e-05 $X=2540 $Y=0 $dt=0
M2 3 2 1 4 ne3 L=2e-06 W=1e-05 AD=2.7e-12 AS=2.7e-12 PD=1.054e-05 PS=1.054e-05 $X=5080 $Y=0 $dt=0
M3 1 2 3 4 ne3 L=2e-06 W=1e-05 AD=2.7e-12 AS=2.7e-12 PD=1.054e-05 PS=1.054e-05 $X=7620 $Y=0 $dt=0
M4 3 2 1 4 ne3 L=2e-06 W=1e-05 AD=2.7e-12 AS=2.7e-12 PD=1.054e-05 PS=1.054e-05 $X=10160 $Y=0 $dt=0
M5 1 2 3 4 ne3 L=2e-06 W=1e-05 AD=2.7e-12 AS=2.7e-12 PD=1.054e-05 PS=1.054e-05 $X=12700 $Y=0 $dt=0
M6 3 2 1 4 ne3 L=2e-06 W=1e-05 AD=2.7e-12 AS=2.7e-12 PD=1.054e-05 PS=1.054e-05 $X=15240 $Y=0 $dt=0
M7 1 2 3 4 ne3 L=2e-06 W=1e-05 AD=4.8e-12 AS=2.7e-12 PD=2.096e-05 PS=1.054e-05 $X=17780 $Y=0 $dt=0
.ends ne3_CDNS_7194277470813

* +++++++++++++++++++++++++++++++++++++++++++++++++++++++++ *
* Sub cell: ne3_CDNS_7194277470815                          *
* +++++++++++++++++++++++++++++++++++++++++++++++++++++++++ *
.subckt ne3_CDNS_7194277470815 1 2 3
** N=3 EP=3 FDC=1
M0 3 2 1 1 ne3 L=2e-06 W=1e-05 AD=4.8e-12 AS=4.8e-12 PD=2.096e-05 PS=2.096e-05 $X=0 $Y=0 $dt=0
.ends ne3_CDNS_7194277470815

* +++++++++++++++++++++++++++++++++++++++++++++++++++++++++ *
* Sub cell: pe3_CDNS_7194277470816                          *
* +++++++++++++++++++++++++++++++++++++++++++++++++++++++++ *
.subckt pe3_CDNS_7194277470816 1 2
*.DEVICECLIMB
** N=2 EP=2 FDC=1
M0 1 1 1 1 pe3 L=1e-05 W=2e-06 AD=9.6e-13 AS=9.6e-13 PD=4.96e-06 PS=4.96e-06 $X=0 $Y=0 $dt=1
.ends pe3_CDNS_7194277470816

* +++++++++++++++++++++++++++++++++++++++++++++++++++++++++ *
* Sub cell: ne3_CDNS_7194277470817                          *
* +++++++++++++++++++++++++++++++++++++++++++++++++++++++++ *
.subckt ne3_CDNS_7194277470817 1 2 3
** N=3 EP=3 FDC=4
M0 3 2 1 1 ne3 L=3.5e-07 W=1e-05 AD=2.7e-12 AS=4.8e-12 PD=1.054e-05 PS=2.096e-05 $X=0 $Y=0 $dt=0
M1 1 2 3 1 ne3 L=3.5e-07 W=1e-05 AD=2.7e-12 AS=2.7e-12 PD=1.054e-05 PS=1.054e-05 $X=890 $Y=0 $dt=0
M2 3 2 1 1 ne3 L=3.5e-07 W=1e-05 AD=2.7e-12 AS=2.7e-12 PD=1.054e-05 PS=1.054e-05 $X=1780 $Y=0 $dt=0
M3 1 2 3 1 ne3 L=3.5e-07 W=1e-05 AD=4.8e-12 AS=2.7e-12 PD=2.096e-05 PS=1.054e-05 $X=2670 $Y=0 $dt=0
.ends ne3_CDNS_7194277470817

* +++++++++++++++++++++++++++++++++++++++++++++++++++++++++ *
* Sub cell: ne3_CDNS_7194277470818                          *
* +++++++++++++++++++++++++++++++++++++++++++++++++++++++++ *
.subckt ne3_CDNS_7194277470818 1 2 3
** N=3 EP=3 FDC=1
M0 3 2 1 1 ne3 L=3.5e-07 W=2e-06 AD=9.6e-13 AS=9.6e-13 PD=4.96e-06 PS=4.96e-06 $X=0 $Y=0 $dt=0
.ends ne3_CDNS_7194277470818

* +++++++++++++++++++++++++++++++++++++++++++++++++++++++++ *
* Sub cell: MASCO__A1                                       *
* +++++++++++++++++++++++++++++++++++++++++++++++++++++++++ *
.subckt MASCO__A1 1 2
*.DEVICECLIMB
** N=2 EP=2 FDC=2
X0 1 2 pe3_CDNS_7194277470816 $T=1510 3030 1 0 $X=0 $Y=0
X1 1 2 pe3_CDNS_7194277470816 $T=12750 3030 1 0 $X=11240 $Y=0
.ends MASCO__A1

* +++++++++++++++++++++++++++++++++++++++++++++++++++++++++ *
* Sub cell: MASCO__A2                                       *
* +++++++++++++++++++++++++++++++++++++++++++++++++++++++++ *
.subckt MASCO__A2 1 2 3 4 5 6
*.DEVICECLIMB
** N=6 EP=6 FDC=2
X0 1 4 2 6 pe3_CDNS_719427747080 $T=1510 11030 1 0 $X=0 $Y=0
X1 1 5 3 6 pe3_CDNS_719427747080 $T=12750 11030 1 0 $X=11240 $Y=0
.ends MASCO__A2

* +++++++++++++++++++++++++++++++++++++++++++++++++++++++++ *
* Sub cell: ne3i_6_CDNS_7194277470814                       *
* +++++++++++++++++++++++++++++++++++++++++++++++++++++++++ *
.subckt ne3i_6_CDNS_7194277470814 1 2 3 4 5
*.DEVICECLIMB
** N=5 EP=5 FDC=1
X0 1 2 3 1 4 5 NE3I_6 w=1e-05 l=2e-06 as=4.8e-12 ad=4.8e-12 ps=2.096e-05 pd=2.096e-05 $X=0 $Y=0 $dt=2
.ends ne3i_6_CDNS_7194277470814

* +++++++++++++++++++++++++++++++++++++++++++++++++++++++++ *
* Sub cell: MASCO__A3                                       *
* +++++++++++++++++++++++++++++++++++++++++++++++++++++++++ *
.subckt MASCO__A3 1 2 3 4 5 6 7
*.DEVICECLIMB
** N=7 EP=7 FDC=2
X0 1 3 2 6 7 ne3i_6_CDNS_7194277470814 $T=4060 14570 1 0 $X=0 $Y=0
X1 1 5 4 6 7 ne3i_6_CDNS_7194277470814 $T=7460 14570 1 0 $X=3400 $Y=0
.ends MASCO__A3

* +++++++++++++++++++++++++++++++++++++++++++++++++++++++++ *
* Sub cell: MASCO__A4                                       *
* +++++++++++++++++++++++++++++++++++++++++++++++++++++++++ *
.subckt MASCO__A4 1 2 3 4 5 6 7
*.DEVICECLIMB
** N=7 EP=7 FDC=2
X0 1 5 4 6 7 ne3i_6_CDNS_7194277470814 $T=4060 4450 0 0 $X=0 $Y=0
X1 1 3 2 6 7 ne3i_6_CDNS_7194277470814 $T=7460 4450 0 0 $X=3400 $Y=0
.ends MASCO__A4

* +++++++++++++++++++++++++++++++++++++++++++++++++++++++++ *
* Sub cell: MASCO__B5                                       *
* +++++++++++++++++++++++++++++++++++++++++++++++++++++++++ *
.subckt MASCO__B5 1 2 3 4 5 6 7 8 9 10
+ 11
*.DEVICECLIMB
** N=11 EP=11 FDC=4
X0 1 3 10 5 9 2 11 MASCO__A3 $T=0 13180 0 0 $X=0 $Y=13180
X1 1 6 7 4 8 2 11 MASCO__A4 $T=0 0 0 0 $X=0 $Y=0
.ends MASCO__B5

* +++++++++++++++++++++++++++++++++++++++++++++++++++++++++ *
* Sub cell: MASCO__A6                                       *
* +++++++++++++++++++++++++++++++++++++++++++++++++++++++++ *
.subckt MASCO__A6 1 2 3 4 5 6 7 8
*.DEVICECLIMB
** N=8 EP=8 FDC=4
X0 1 2 4 7 3 8 MASCO__A2 $T=0 0 0 0 $X=0 $Y=0
X1 1 5 6 3 3 8 MASCO__A2 $T=22480 0 0 0 $X=22480 $Y=0
.ends MASCO__A6

* +++++++++++++++++++++++++++++++++++++++++++++++++++++++++ *
* Sub cell: dac6b_amp_n2                                    *
* +++++++++++++++++++++++++++++++++++++++++++++++++++++++++ *
.subckt dac6b_amp_n2 2 30 29 28 27 26 25 24 11 5
+ 22 23
** N=31 EP=12 FDC=372
X0 1 VIA1_C_CDNS_719427747080 $T=7445 56365 0 0 $X=7045 $Y=55655
X1 2 VIA1_C_CDNS_719427747080 $T=9985 58145 0 0 $X=9585 $Y=57435
X2 1 VIA1_C_CDNS_719427747080 $T=12525 56365 0 0 $X=12125 $Y=55655
X3 2 VIA1_C_CDNS_719427747080 $T=15065 58145 0 0 $X=14665 $Y=57435
X4 1 VIA1_C_CDNS_719427747080 $T=17605 56365 0 0 $X=17205 $Y=55655
X5 2 VIA1_C_CDNS_719427747080 $T=20145 58145 0 0 $X=19745 $Y=57435
X6 1 VIA1_C_CDNS_719427747080 $T=22685 56365 0 0 $X=22285 $Y=55655
X7 2 VIA1_C_CDNS_719427747080 $T=25225 58145 0 0 $X=24825 $Y=57435
X8 1 VIA1_C_CDNS_719427747080 $T=27765 56365 0 0 $X=27365 $Y=55655
X9 3 VIA1_C_CDNS_719427747080 $T=34200 58145 0 0 $X=33800 $Y=57435
X10 4 VIA1_C_CDNS_719427747080 $T=36740 56365 0 0 $X=36340 $Y=55655
X11 3 VIA1_C_CDNS_719427747080 $T=39280 58145 0 0 $X=38880 $Y=57435
X12 4 VIA1_C_CDNS_719427747080 $T=41820 56365 0 0 $X=41420 $Y=55655
X13 3 VIA1_C_CDNS_719427747080 $T=44360 58145 0 0 $X=43960 $Y=57435
X14 4 VIA1_C_CDNS_719427747080 $T=46900 56365 0 0 $X=46500 $Y=55655
X15 3 VIA1_C_CDNS_719427747080 $T=49440 58145 0 0 $X=49040 $Y=57435
X16 4 VIA1_C_CDNS_719427747080 $T=51980 56365 0 0 $X=51580 $Y=55655
X17 3 VIA1_C_CDNS_719427747080 $T=54520 58145 0 0 $X=54120 $Y=57435
X18 5 VIA1_C_CDNS_719427747080 $T=56070 146660 0 0 $X=55670 $Y=145950
X19 5 VIA1_C_CDNS_719427747080 $T=56070 173480 0 0 $X=55670 $Y=172770
X20 5 VIA1_C_CDNS_719427747080 $T=66380 146660 0 0 $X=65980 $Y=145950
X21 5 VIA1_C_CDNS_719427747080 $T=66380 173480 0 0 $X=65980 $Y=172770
X22 5 VIA1_C_CDNS_719427747080 $T=67540 146660 0 0 $X=67140 $Y=145950
X23 5 VIA1_C_CDNS_719427747080 $T=67540 173480 0 0 $X=67140 $Y=172770
X24 6 VIA1_C_CDNS_719427747080 $T=77620 144880 0 0 $X=77220 $Y=144170
X25 7 VIA1_C_CDNS_719427747080 $T=77620 175260 0 0 $X=77220 $Y=174550
X26 7 VIA1_C_CDNS_719427747080 $T=88860 143100 0 0 $X=88460 $Y=142390
X27 6 VIA1_C_CDNS_719427747080 $T=88860 177040 0 0 $X=88460 $Y=176330