* +++++++++++++++++++++++++++++++++++++++++++++++++++++++++ *
* CDL Netlist:                                              *
*                                                           *
* Cell Name  : hvswitch7                                    *
* Netlisted  : Thu Aug  8 04:20:11 2024                     *
* PVS Version: 23.10-p043 Mon Oct 2 18:09:08 PDT 2023      *
* +++++++++++++++++++++++++++++++++++++++++++++++++++++++++ *
*.LDD
*.DEVTMPLT 0 LDDN(nedia) nedia2_d dnwtrm(D) p1trm(G) ndiff(S) bulk(B)
*.DEVTMPLT 1 LDDP(ped) ped12_d pwitrm(D) p1trm(G) pdiff(S) bulk(B)
*.DEVTMPLT 2 MN(ne3) nem ndiff(D) p1trm(G) ndiff(S) bulk(B)
*.DEVTMPLT 3 MP(pe3) pem pdiff(D) p1trm(G) pdiff(S) nwtrm(B)
*.DEVTMPLT 4 D(p_dnw) p_dnw bulk(POS) nwtrm(NEG)
*.DEVTMPLT 5 D(p_ddnw) p_ddnw bulk(POS) dnwtrm(NEG)
*.DEVTMPLT 6 D(p_dwhn) p_dwhn bulk(POS) hnw(NEG)
*.DEVTMPLT 7 D(dpp20) dpp20 pwitrm(POS) dnwtrm(NEG)
*.DEVTMPLT 8 D(dsba) d_dsba d_dsdf(POS) hnw(NEG) bulk(SUB)
*.DEVTMPLT 9 D(p_dnw3) p_dnwm bulk(POS) nwtrm(NEG)
*.DEVTMPLT 10 R(rpp1k1_3) rpp1k1_s p1trm(POS) p1trm(NEG) bulk(SUB)
*.DEVTMPLT 11 C(csf4a) d_csf4a m1atrm(POS) m1btrm(NEG)

* +++++++++++++++++++++++++++++++++++++++++++++++++++++++++ *
* Sub cell: LDDP                                            *
* +++++++++++++++++++++++++++++++++++++++++++++++++++++++++ *
.subckt LDDP D G S B
.ends LDDP

* +++++++++++++++++++++++++++++++++++++++++++++++++++++++++ *
* Sub cell: LDDN                                            *
* +++++++++++++++++++++++++++++++++++++++++++++++++++++++++ *
.subckt LDDN D G S B
.ends LDDN

* +++++++++++++++++++++++++++++++++++++++++++++++++++++++++ *
* Sub cell: VIATP_C_CDNS_7231052045216                      *
* +++++++++++++++++++++++++++++++++++++++++++++++++++++++++ *
.subckt VIATP_C_CDNS_7231052045216 1
** N=1 EP=1 FDC=0
.ends VIATP_C_CDNS_7231052045216

* +++++++++++++++++++++++++++++++++++++++++++++++++++++++++ *
* Sub cell: VIATP_C_CDNS_7231052045236                      *
* +++++++++++++++++++++++++++++++++++++++++++++++++++++++++ *
.subckt VIATP_C_CDNS_7231052045236 1
** N=1 EP=1 FDC=0
.ends VIATP_C_CDNS_7231052045236

* +++++++++++++++++++++++++++++++++++++++++++++++++++++++++ *
* Sub cell: VIATP_C_CDNS_7231052045237                      *
* +++++++++++++++++++++++++++++++++++++++++++++++++++++++++ *
.subckt VIATP_C_CDNS_7231052045237 1
** N=1 EP=1 FDC=0
.ends VIATP_C_CDNS_7231052045237

* +++++++++++++++++++++++++++++++++++++++++++++++++++++++++ *
* Sub cell: VIATP_C_CDNS_7231052045245                      *
* +++++++++++++++++++++++++++++++++++++++++++++++++++++++++ *
.subckt VIATP_C_CDNS_7231052045245 1
** N=1 EP=1 FDC=0
.ends VIATP_C_CDNS_7231052045245

* +++++++++++++++++++++++++++++++++++++++++++++++++++++++++ *
* Sub cell: VIATP_C_CDNS_7231052045249                      *
* +++++++++++++++++++++++++++++++++++++++++++++++++++++++++ *
.subckt VIATP_C_CDNS_7231052045249 1
** N=1 EP=1 FDC=0
.ends VIATP_C_CDNS_7231052045249

* +++++++++++++++++++++++++++++++++++++++++++++++++++++++++ *
* Sub cell: VIATP_C_CDNS_7231052045250                      *
* +++++++++++++++++++++++++++++++++++++++++++++++++++++++++ *
.subckt VIATP_C_CDNS_7231052045250 1
** N=1 EP=1 FDC=0
.ends VIATP_C_CDNS_7231052045250

* +++++++++++++++++++++++++++++++++++++++++++++++++++++++++ *
* Sub cell: VIATP_C_CDNS_7231052045251                      *
* +++++++++++++++++++++++++++++++++++++++++++++++++++++++++ *
.subckt VIATP_C_CDNS_7231052045251 1
** N=1 EP=1 FDC=0
.ends VIATP_C_CDNS_7231052045251

* +++++++++++++++++++++++++++++++++++++++++++++++++++++++++ *
* Sub cell: VIATP_C_CDNS_7231052045253                      *
* +++++++++++++++++++++++++++++++++++++++++++++++++++++++++ *
.subckt VIATP_C_CDNS_7231052045253 1
** N=1 EP=1 FDC=0
.ends VIATP_C_CDNS_7231052045253

* +++++++++++++++++++++++++++++++++++++++++++++++++++++++++ *
* Sub cell: VIATP_C_CDNS_7231052045254                      *
* +++++++++++++++++++++++++++++++++++++++++++++++++++++++++ *
.subckt VIATP_C_CDNS_7231052045254 1
** N=1 EP=1 FDC=0
.ends VIATP_C_CDNS_7231052045254

* +++++++++++++++++++++++++++++++++++++++++++++++++++++++++ *
* Sub cell: VIATP_C_CDNS_7231052045257                      *
* +++++++++++++++++++++++++++++++++++++++++++++++++++++++++ *
.subckt VIATP_C_CDNS_7231052045257 1
** N=1 EP=1 FDC=0
.ends VIATP_C_CDNS_7231052045257

* +++++++++++++++++++++++++++++++++++++++++++++++++++++++++ *
* Sub cell: VIATP_C_CDNS_7231052045258                      *
* +++++++++++++++++++++++++++++++++++++++++++++++++++++++++ *
.subckt VIATP_C_CDNS_7231052045258 1
** N=1 EP=1 FDC=0
.ends VIATP_C_CDNS_7231052045258

* +++++++++++++++++++++++++++++++++++++++++++++++++++++++++ *
* Sub cell: nedia_CDNS_723105204520                         *
* +++++++++++++++++++++++++++++++++++++++++++++++++++++++++ *
.subckt nedia_CDNS_723105204520 1 2 3 4
** N=4 EP=4 FDC=12
X0 2 3 4 1 LDDN w=5e-05 l=1.25e-06 adio=6.71697e-10 pdio=3.30958e-05 extlay=1 $[nedia] $X=-680 $Y=-4850 $dt=0
X1 2 3 4 1 LDDN w=5e-05 l=1.25e-06 adio=6.71697e-10 pdio=3.30958e-05 extlay=1 $[nedia] $X=11220 $Y=-4850 $dt=0
X2 2 3 4 1 LDDN w=5e-05 l=1.25e-06 adio=6.71697e-10 pdio=3.30958e-05 extlay=1 $[nedia] $X=23120 $Y=-4850 $dt=0
X3 2 3 4 1 LDDN w=5e-05 l=1.25e-06 adio=6.71697e-10 pdio=3.30958e-05 extlay=1 $[nedia] $X=35020 $Y=-4850 $dt=0
X4 2 3 4 1 LDDN w=5e-05 l=1.25e-06 adio=6.71697e-10 pdio=3.30958e-05 extlay=1 $[nedia] $X=46920 $Y=-4850 $dt=0
X5 2 3 4 1 LDDN w=5e-05 l=1.25e-06 adio=6.71697e-10 pdio=3.30958e-05 extlay=1 $[nedia] $X=58820 $Y=-4850 $dt=0
X6 2 3 4 1 LDDN w=5e-05 l=1.25e-06 adio=6.71697e-10 pdio=3.30958e-05 extlay=1 $[nedia] $X=70720 $Y=-4850 $dt=0
X7 2 3 4 1 LDDN w=5e-05 l=1.25e-06 adio=6.71697e-10 pdio=3.30958e-05 extlay=1 $[nedia] $X=82620 $Y=-4850 $dt=0
X8 2 3 4 1 LDDN w=5e-05 l=1.25e-06 adio=6.71697e-10 pdio=3.30958e-05 extlay=1 $[nedia] $X=94520 $Y=-4850 $dt=0
X9 2 3 4 1 LDDN w=5e-05 l=1.25e-06 adio=6.71697e-10 pdio=3.30958e-05 extlay=1 $[nedia] $X=106420 $Y=-4850 $dt=0
X10 2 3 4 1 LDDN w=5e-05 l=1.25e-06 adio=6.71697e-10 pdio=3.30958e-05 extlay=1 $[nedia] $X=118320 $Y=-4850 $dt=0
X11 2 3 4 1 LDDN w=5e-05 l=1.25e-06 adio=6.71697e-10 pdio=3.30958e-05 extlay=1 $[nedia] $X=130220 $Y=-4850 $dt=0
.ends nedia_CDNS_723105204520

* +++++++++++++++++++++++++++++++++++++++++++++++++++++++++ *
* Sub cell: MASCO__X12                                      *
* +++++++++++++++++++++++++++++++++++++++++++++++++++++++++ *
.subckt MASCO__X12 1
** N=1 EP=1 FDC=0
X0 1 VIATP_C_CDNS_7231052045216 $T=500 500 0 0 $X=0 $Y=0
X1 1 VIATP_C_CDNS_7231052045216 $T=500 1500 0 0 $X=0 $Y=1000
X2 1 VIATP_C_CDNS_7231052045216 $T=500 2500 0 0 $X=0 $Y=2000
X3 1 VIATP_C_CDNS_7231052045216 $T=500 3500 0 0 $X=0 $Y=3000
X4 1 VIATP_C_CDNS_7231052045216 $T=500 4500 0 0 $X=0 $Y=4000
X5 1 VIATP_C_CDNS_7231052045216 $T=500 5500 0 0 $X=0 $Y=5000
X6 1 VIATP_C_CDNS_7231052045216 $T=500 6500 0 0 $X=0 $Y=6000
X7 1 VIATP_C_CDNS_7231052045216 $T=500 7500 0 0 $X=0 $Y=7000
X8 1 VIATP_C_CDNS_7231052045216 $T=500 8500 0 0 $X=0 $Y=8000
X9 1 VIATP_C_CDNS_7231052045216 $T=500 9500 0 0 $X=0 $Y=9000
.ends MASCO__X12

* +++++++++++++++++++++++++++++++++++++++++++++++++++++++++ *
* Sub cell: MASCO__X14                                      *
* +++++++++++++++++++++++++++++++++++++++++++++++++++++++++ *
.subckt MASCO__X14 1
** N=1 EP=1 FDC=0
X0 1 VIATP_C_CDNS_7231052045216 $T=500 500 0 0 $X=0 $Y=0
X1 1 VIATP_C_CDNS_7231052045216 $T=500 2500 0 0 $X=0 $Y=2000
X2 1 VIATP_C_CDNS_7231052045216 $T=500 4500 0 0 $X=0 $Y=4000
X3 1 VIATP_C_CDNS_7231052045216 $T=500 6500 0 0 $X=0 $Y=6000
X4 1 VIATP_C_CDNS_7231052045216 $T=500 8500 0 0 $X=0 $Y=8000
.ends MASCO__X14

* +++++++++++++++++++++++++++++++++++++++++++++++++++++++++ *
* Sub cell: MASCO__Y18                                      *
* +++++++++++++++++++++++++++++++++++++++++++++++++++++++++ *
.subckt MASCO__Y18 1
** N=1 EP=1 FDC=0
X0 1 VIATP_C_CDNS_7231052045236 $T=500 620 0 0 $X=0 $Y=0
X1 1 VIATP_C_CDNS_7231052045236 $T=1500 620 0 0 $X=1000 $Y=0
X2 1 VIATP_C_CDNS_7231052045236 $T=2500 620 0 0 $X=2000 $Y=0
X3 1 VIATP_C_CDNS_7231052045236 $T=3500 620 0 0 $X=3000 $Y=0
X4 1 VIATP_C_CDNS_7231052045236 $T=4500 620 0 0 $X=4000 $Y=0
X5 1 VIATP_C_CDNS_7231052045236 $T=5500 620 0 0 $X=5000 $Y=0
X6 1 VIATP_C_CDNS_7231052045236 $T=6500 620 0 0 $X=6000 $Y=0
X7 1 VIATP_C_CDNS_7231052045236 $T=7500 620 0 0 $X=7000 $Y=0
X8 1 VIATP_C_CDNS_7231052045236 $T=8500 620 0 0 $X=8000 $Y=0
X9 1 VIATP_C_CDNS_7231052045236 $T=9500 620 0 0 $X=9000 $Y=0
X10 1 VIATP_C_CDNS_7231052045236 $T=10500 620 0 0 $X=10000 $Y=0
X11 1 VIATP_C_CDNS_7231052045236 $T=11500 620 0 0 $X=11000 $Y=0
.ends MASCO__Y18

* +++++++++++++++++++++++++++++++++++++++++++++++++++++++++ *
* Sub cell: MASCO__Y25                                      *
* +++++++++++++++++++++++++++++++++++++++++++++++++++++++++ *
.subckt MASCO__Y25 1
** N=1 EP=1 FDC=0
X0 1 MASCO__X14 $T=0 0 0 0 $X=0 $Y=0
X1 1 MASCO__X14 $T=2000 0 0 0 $X=2000 $Y=0
X2 1 MASCO__X14 $T=4000 0 0 0 $X=4000 $Y=0
X3 1 MASCO__X14 $T=6000 0 0 0 $X=6000 $Y=0
X4 1 MASCO__X14 $T=8000 0 0 0 $X=8000 $Y=0
X5 1 MASCO__X14 $T=10000 0 0 0 $X=10000 $Y=0
X6 1 MASCO__X14 $T=12000 0 0 0 $X=12000 $Y=0
X7 1 MASCO__X14 $T=14000 0 0 0 $X=14000 $Y=0
.ends MASCO__Y25

* +++++++++++++++++++++++++++++++++++++++++++++++++++++++++ *
* Sub cell: MASCO__Y26                                      *
* +++++++++++++++++++++++++++++++++++++++++++++++++++++++++ *
.subckt MASCO__Y26 1
** N=1 EP=1 FDC=0
X0 1 MASCO__X12 $T=0 0 0 0 $X=0 $Y=0
X1 1 MASCO__X12 $T=2000 0 0 0 $X=2000 $Y=0
X2 1 MASCO__X12 $T=4000 0 0 0 $X=4000 $Y=0
X3 1 MASCO__X12 $T=6000 0 0 0 $X=6000 $Y=0
X4 1 MASCO__X12 $T=8000 0 0 0 $X=8000 $Y=0
X5 1 MASCO__X12 $T=10000 0 0 0 $X=10000 $Y=0
X6 1 MASCO__X12 $T=12000 0 0 0 $X=12000 $Y=0
X7 1 MASCO__X12 $T=14000 0 0 0 $X=14000 $Y=0
.ends MASCO__Y26

* +++++++++++++++++++++++++++++++++++++++++++++++++++++++++ *
* Sub cell: MASCO__H1                                       *
* +++++++++++++++++++++++++++++++++++++++++++++++++++++++++ *
.subckt MASCO__H1 1 2 3 4
** N=4 EP=4 FDC=12
X0 4 VIATP_C_CDNS_7231052045216 $T=375420 65345 0 0 $X=374920 $Y=64845
X1 4 VIATP_C_CDNS_7231052045236 $T=263420 75465 0 0 $X=262920 $Y=74845
X2 3 VIATP_C_CDNS_7231052045236 $T=287035 117625 0 0 $X=286535 $Y=117005
X3 3 VIATP_C_CDNS_7231052045236 $T=288035 117625 0 0 $X=287535 $Y=117005
X4 3 VIATP_C_CDNS_7231052045236 $T=289035 117625 0 0 $X=288535 $Y=117005
X5 3 VIATP_C_CDNS_7231052045236 $T=290035 117625 0 0 $X=289535 $Y=117005
X6 3 VIATP_C_CDNS_7231052045236 $T=291035 117625 0 0 $X=290535 $Y=117005
X7 3 VIATP_C_CDNS_7231052045236 $T=292035 117625 0 0 $X=291535 $Y=117005
X8 3 VIATP_C_CDNS_7231052045236 $T=293035 117625 0 0 $X=292535 $Y=117005
X9 3 VIATP_C_CDNS_7231052045236 $T=294035 117625 0 0 $X=293535 $Y=117005
X10 3 VIATP_C_CDNS_7231052045236 $T=295035 117625 0 0 $X=294535 $Y=117005
X11 3 VIATP_C_CDNS_7231052045236 $T=296035 117625 0 0 $X=295535 $Y=117005
X12 4 VIATP_C_CDNS_7231052045236 $T=372420 75465 0 0 $X=371920 $Y=74845
X13 4 VIATP_C_CDNS_7231052045236 $T=373420 75465 0 0 $X=372920 $Y=74845
X14 4 VIATP_C_CDNS_7231052045236 $T=374420 75465 0 0 $X=373920 $Y=74845
X15 3 VIATP_C_CDNS_7231052045236 $T=395035 117625 0 0 $X=394535 $Y=117005
X16 3 VIATP_C_CDNS_7231052045236 $T=396035 117625 0 0 $X=395535 $Y=117005
X17 3 VIATP_C_CDNS_7231052045236 $T=397035 117625 0 0 $X=396535 $Y=117005
X18 3 VIATP_C_CDNS_7231052045236 $T=398035 117625 0 0 $X=397535 $Y=117005
X19 3 VIATP_C_CDNS_7231052045236 $T=399035 117625 0 0 $X=398535 $Y=117005
X20 3 VIATP_C_CDNS_7231052045236 $T=400035 117625 0 0 $X=399535 $Y=117005
X21 3 VIATP_C_CDNS_7231052045236 $T=401035 117625 0 0 $X=400535 $Y=117005
X22 4 VIATP_C_CDNS_7231052045236 $T=401420 75465 0 0 $X=400920 $Y=74845
X23 3 VIATP_C_CDNS_7231052045236 $T=402035 117625 0 0 $X=401535 $Y=117005
X24 4 VIATP_C_CDNS_7231052045236 $T=402420 75465 0 0 $X=401920 $Y=74845
X25 3 VIATP_C_CDNS_7231052045236 $T=403035 117625 0 0 $X=402535 $Y=117005
X26 4 VIATP_C_CDNS_7231052045236 $T=403420 75465 0 0 $X=402920 $Y=74845
X27 3 VIATP_C_CDNS_7231052045236 $T=404035 117625 0 0 $X=403535 $Y=117005
X28 4 VIATP_C_CDNS_7231052045236 $T=404420 75465 0 0 $X=403920 $Y=74845
X29 3 VIATP_C_CDNS_7231052045236 $T=405035 117625 0 0 $X=404535 $Y=117005
X30 4 VIATP_C_CDNS_7231052045236 $T=405420 75465 0 0 $X=404920 $Y=74845
X31 3 VIATP_C_CDNS_7231052045236 $T=407035 117625 0 0 $X=406535 $Y=117005
X32 4 VIATP_C_CDNS_7231052045236 $T=407420 75465 0 0 $X=406920 $Y=74845
X33 3 VIATP_C_CDNS_7231052045236 $T=408035 117625 0 0 $X=407535 $Y=117005
X34 4 VIATP_C_CDNS_7231052045236 $T=408420 75465 0 0 $X=407920 $Y=74845
X35 3 VIATP_C_CDNS_7231052045236 $T=409035 117625 0 0 $X=408535 $Y=117005
X36 4 VIATP_C_CDNS_7231052045236 $T=409420 75465 0 0 $X=408920 $Y=74845
X37 3 VIATP_C_CDNS_7231052045236 $T=410035 117625 0 0 $X=409535 $Y=117005
X38 4 VIATP_C_CDNS_7231052045236 $T=410420 75465 0 0 $X=409920 $Y=74845
X39 3 VIATP_C_CDNS_7231052045236 $T=411035 117625 0 0 $X=410535 $Y=117005
X40 4 VIATP_C_CDNS_7231052045236 $T=411420 75465 0 0 $X=410920 $Y=74845
X41 3 VIATP_C_CDNS_7231052045236 $T=412035 117625 0 0 $X=411535 $Y=117005
X42 4 VIATP_C_CDNS_7231052045236 $T=412420 75465 0 0 $X=411920 $Y=74845
X43 3 VIATP_C_CDNS_7231052045236 $T=413035 117625 0 0 $X=412535 $Y=117005
X44 4 VIATP_C_CDNS_7231052045236 $T=413420 75465 0 0 $X=412920 $Y=74845
X45 3 VIATP_C_CDNS_7231052045236 $T=414035 117625 0 0 $X=413535 $Y=117005
X46 4 VIATP_C_CDNS_7231052045236 $T=414420 75465 0 0 $X=413920 $Y=74845
X47 4 VIATP_C_CDNS_7231052045237 $T=406480 75465 0 0 $X=406040 $Y=74845
X48 3 VIATP_C_CDNS_7231052045245 $T=405785 118745 0 0 $X=405515 $Y=118245
X49 3 VIATP_C_CDNS_7231052045245 $T=405785 119745 0 0 $X=405515 $Y=119245
X50 3 VIATP_C_CDNS_7231052045245 $T=405785 120745 0 0 $X=405515 $Y=120245
X51 3 VIATP_C_CDNS_7231052045245 $T=405785 121745 0 0 $X=405515 $Y=121245
X52 3 VIATP_C_CDNS_7231052045245 $T=405785 122745 0 0 $X=405515 $Y=122245
X53 3 VIATP_C_CDNS_7231052045245 $T=405785 123745 0 0 $X=405515 $Y=123245
X54 3 VIATP_C_CDNS_7231052045245 $T=405785 124745 0 0 $X=405515 $Y=124245
X55 3 VIATP_C_CDNS_7231052045245 $T=405785 125745 0 0 $X=405515 $Y=125245
X56 3 VIATP_C_CDNS_7231052045245 $T=405785 126745 0 0 $X=405515 $Y=126245
X57 3 VIATP_C_CDNS_7231052045245 $T=405785 127745 0 0 $X=405515 $Y=127245
X58 3 VIATP_C_CDNS_7231052045249 $T=261795 117625 0 0 $X=261065 $Y=117005
X59 3 VIATP_C_CDNS_7231052045250 $T=297685 118745 0 0 $X=297415 $Y=118245
X60 3 VIATP_C_CDNS_7231052045250 $T=297685 119745 0 0 $X=297415 $Y=119245
X61 3 VIATP_C_CDNS_7231052045250 $T=297685 120745 0 0 $X=297415 $Y=120245
X62 3 VIATP_C_CDNS_7231052045250 $T=297685 121745 0 0 $X=297415 $Y=121245
X63 3 VIATP_C_CDNS_7231052045250 $T=297685 122745 0 0 $X=297415 $Y=122245
X64 3 VIATP_C_CDNS_7231052045250 $T=297685 123745 0 0 $X=297415 $Y=123245
X65 3 VIATP_C_CDNS_7231052045250 $T=297685 124745 0 0 $X=297415 $Y=124245
X66 3 VIATP_C_CDNS_7231052045250 $T=297685 125745 0 0 $X=297415 $Y=125245
X67 3 VIATP_C_CDNS_7231052045250 $T=297685 126745 0 0 $X=297415 $Y=126245
X68 3 VIATP_C_CDNS_7231052045250 $T=297685 127745 0 0 $X=297415 $Y=127245
X69 3 VIATP_C_CDNS_7231052045251 $T=261795 118745 0 0 $X=261065 $Y=118245
X70 3 VIATP_C_CDNS_7231052045251 $T=261795 119745 0 0 $X=261065 $Y=119245
X71 3 VIATP_C_CDNS_7231052045251 $T=261795 120745 0 0 $X=261065 $Y=120245
X72 3 VIATP_C_CDNS_7231052045251 $T=261795 121745 0 0 $X=261065 $Y=121245
X73 3 VIATP_C_CDNS_7231052045251 $T=261795 122745 0 0 $X=261065 $Y=122245
X74 3 VIATP_C_CDNS_7231052045251 $T=261795 123745 0 0 $X=261065 $Y=123245
X75 3 VIATP_C_CDNS_7231052045251 $T=261795 124745 0 0 $X=261065 $Y=124245
X76 3 VIATP_C_CDNS_7231052045251 $T=261795 125745 0 0 $X=261065 $Y=125245
X77 3 VIATP_C_CDNS_7231052045251 $T=261795 126745 0 0 $X=261065 $Y=126245
X78 3 VIATP_C_CDNS_7231052045251 $T=261795 127745 0 0 $X=261065 $Y=127245
X79 4 VIATP_C_CDNS_7231052045253 $T=261990 75465 0 0 $X=261060 $Y=74845
X80 4 VIATP_C_CDNS_7231052045254 $T=261990 65345 0 0 $X=261060 $Y=64845
X81 4 VIATP_C_CDNS_7231052045254 $T=261990 66345 0 0 $X=261060 $Y=65845
X82 4 VIATP_C_CDNS_7231052045254 $T=261990 67345 0 0 $X=261060 $Y=66845
X83 4 VIATP_C_CDNS_7231052045254 $T=261990 68345 0 0 $X=261060 $Y=67845
X84 4 VIATP_C_CDNS_7231052045254 $T=261990 69345 0 0 $X=261060 $Y=68845
X85 4 VIATP_C_CDNS_7231052045254 $T=261990 70345 0 0 $X=261060 $Y=69845
X86 4 VIATP_C_CDNS_7231052045254 $T=261990 71345 0 0 $X=261060 $Y=70845
X87 4 VIATP_C_CDNS_7231052045254 $T=261990 72345 0 0 $X=261060 $Y=71845
X88 4 VIATP_C_CDNS_7231052045254 $T=261990 73345 0 0 $X=261060 $Y=72845
X89 4 VIATP_C_CDNS_7231052045254 $T=261990 74345 0 0 $X=261060 $Y=73845
X90 4 VIATP_C_CDNS_7231052045257 $T=406480 65345 0 0 $X=406040 $Y=64845
X91 4 VIATP_C_CDNS_7231052045257 $T=406480 66345 0 0 $X=406040 $Y=65845
X92 4 VIATP_C_CDNS_7231052045257 $T=406480 67345 0 0 $X=406040 $Y=66845
X93 4 VIATP_C_CDNS_7231052045257 $T=406480 68345 0 0 $X=406040 $Y=67845
X94 4 VIATP_C_CDNS_7231052045257 $T=406480 69345 0 0 $X=406040 $Y=68845
X95 4 VIATP_C_CDNS_7231052045257 $T=406480 70345 0 0 $X=406040 $Y=69845
X96 4 VIATP_C_CDNS_7231052045257 $T=406480 71345 0 0 $X=406040 $Y=70845
X97 4 VIATP_C_CDNS_7231052045257 $T=406480 72345 0 0 $X=406040 $Y=71845
X98 4 VIATP_C_CDNS_7231052045257 $T=406480 73345 0 0 $X=406040 $Y=72845
X99 4 VIATP_C_CDNS_7231052045257 $T=406480 74345 0 0 $X=406040 $Y=73845
X100 4 VIATP_C_CDNS_7231052045258 $T=375550 67345 0 0 $X=375185 $Y=66845
X101 4 VIATP_C_CDNS_7231052045258 $T=375550 69345 0 0 $X=375185 $Y=68845
X102 4 VIATP_C_CDNS_7231052045258 $T=375550 71345 0 0 $X=375185 $Y=70845
X103 4 VIATP_C_CDNS_7231052045258 $T=375550 73345 0 0 $X=375185 $Y=72845
X104 1 3 2 4 nedia_CDNS_723105204520 $T=267970 84045 0 0 $X=251750 $Y=64655
X105 3 MASCO__X12 $T=263535 118245 0 0 $X=263535 $Y=118245
X106 3 MASCO__X12 $T=265535 118245 0 0 $X=265535 $Y=118245
X107 3 MASCO__X12 $T=267535 118245 0 0 $X=267535 $Y=118245
X108 3 MASCO__X12 $T=269535 118245 0 0 $X=269535 $Y=118245
X109 3 MASCO__X12 $T=271535 118245 0 0 $X=271535 $Y=118245
X110 3 MASCO__X12 $T=273535 118245 0 0 $X=273535 $Y=118245
X111 3 MASCO__X12 $T=275535 118245 0 0 $X=275535 $Y=118245
X112 3 MASCO__X12 $T=277535 118245 0 0 $X=277535 $Y=118245
X113 3 MASCO__X12 $T=279535 118245 0 0 $X=279535 $Y=118245
X114 3 MASCO__X12 $T=299535 118245 0 0 $X=299535 $Y=118245
X115 3 MASCO__X12 $T=301535 118245 0 0 $X=301535 $Y=118245
X116 3 MASCO__X12 $T=303535 118245 0 0 $X=303535 $Y=118245
X117 3 MASCO__X12 $T=305535 118245 0 0 $X=305535 $Y=118245
X118 3 MASCO__X12 $T=307535 118245 0 0 $X=307535 $Y=118245
X119 3 MASCO__X12 $T=309535 118245 0 0 $X=309535 $Y=118245
X120 3 MASCO__X12 $T=311535 118245 0 0 $X=311535 $Y=118245
X121 3 MASCO__X12 $T=313535 118245 0 0 $X=313535 $Y=118245
X122 3 MASCO__X12 $T=315535 118245 0 0 $X=315535 $Y=118245
X123 3 MASCO__X12 $T=317535 118245 0 0 $X=317535 $Y=118245
X124 3 MASCO__X12 $T=319535 118245 0 0 $X=319535 $Y=118245
X125 3 MASCO__X12 $T=321535 118245 0 0 $X=321535 $Y=118245
X126 3 MASCO__X12 $T=323535 118245 0 0 $X=323535 $Y=118245
X127 3 MASCO__X12 $T=325535 118245 0 0 $X=325535 $Y=118245
X128 3 MASCO__X12 $T=327535 118245 0 0 $X=327535 $Y=118245
X129 3 MASCO__X12 $T=329535 118245 0 0 $X=329535 $Y=118245
X130 3 MASCO__X12 $T=331535 118245 0 0 $X=331535 $Y=118245
X131 3 MASCO__X12 $T=333535 118245 0 0 $X=333535 $Y=118245
X132 3 MASCO__X12 $T=335535 118245 0 0 $X=335535 $Y=118245
X133 3 MASCO__X12 $T=337535 118245 0 0 $X=337535 $Y=118245
X134 3 MASCO__X12 $T=339535 118245 0 0 $X=339535 $Y=118245
X135 3 MASCO__X12 $T=341535 118245 0 0 $X=341535 $Y=118245
X136 3 MASCO__X12 $T=343535 118245 0 0 $X=343535 $Y=118245
X137 3 MASCO__X12 $T=345535 118245 0 0 $X=345535 $Y=118245
X138 3 MASCO__X12 $T=347535 118245 0 0 $X=347535 $Y=118245
X139 3 MASCO__X12 $T=349535 118245 0 0 $X=349535 $Y=118245
X140 3 MASCO__X12 $T=351535 118245 0 0 $X=351535 $Y=118245
X141 3 MASCO__X12 $T=353535 118245 0 0 $X=353535 $Y=118245
X142 3 MASCO__X12 $T=355535 118245 0 0 $X=355535 $Y=118245
X143 3 MASCO__X12 $T=357535 118245 0 0 $X=357535 $Y=118245
X144 3 MASCO__X12 $T=359535 118245 0 0 $X=359535 $Y=118245
X145 3 MASCO__X12 $T=361535 118245 0 0 $X=361535 $Y=118245
X146 3 MASCO__X12 $T=363535 118245 0 0 $X=363535 $Y=118245
X147 3 MASCO__X12 $T=365535 118245 0 0 $X=365535 $Y=118245
X148 3 MASCO__X12 $T=367535 118245 0 0 $X=367535 $Y=118245
X149 3 MASCO__X12 $T=369535 118245 0 0 $X=369535 $Y=118245
X150 3 MASCO__X12 $T=371535 118245 0 0 $X=371535 $Y=118245
X151 3 MASCO__X12 $T=373535 118245 0 0 $X=373535 $Y=118245
X152 3 MASCO__X12 $T=375535 118245 0 0 $X=375535 $Y=118245
X153 3 MASCO__X12 $T=377535 118245 0 0 $X=377535 $Y=118245
X154 4 MASCO__X12 $T=377920 64845 0 0 $X=377920 $Y=64845
X155 3 MASCO__X12 $T=379535 118245 0 0 $X=379535 $Y=118245
X156 4 MASCO__X12 $T=379920 64845 0 0 $X=379920 $Y=64845
X157 3 MASCO__X12 $T=381535 118245 0 0 $X=381535 $Y=118245
X158 4 MASCO__X12 $T=381920 64845 0 0 $X=381920 $Y=64845
X159 3 MASCO__X12 $T=383535 118245 0 0 $X=383535 $Y=118245
X160 4 MASCO__X12 $T=383920 64845 0 0 $X=383920 $Y=64845
X161 3 MASCO__X12 $T=385535 118245 0 0 $X=385535 $Y=118245
X162 4 MASCO__X12 $T=385920 64845 0 0 $X=385920 $Y=64845
X163 3 MASCO__X12 $T=387535 118245 0 0 $X=387535 $Y=118245
X164 4 MASCO__X12 $T=387920 64845 0 0 $X=387920 $Y=64845
X165 3 MASCO__X12 $T=389535 118245 0 0 $X=389535 $Y=118245
X166 4 MASCO__X12 $T=389920 64845 0 0 $X=389920 $Y=64845
X167 3 MASCO__X12 $T=391535 118245 0 0 $X=391535 $Y=118245
X168 4 MASCO__X12 $T=391920 64845 0 0 $X=391920 $Y=64845
X169 3 MASCO__X12 $T=393535 118245 0 0 $X=393535 $Y=118245
X170 4 MASCO__X12 $T=393920 64845 0 0 $X=393920 $Y=64845
X171 3 MASCO__X12 $T=395535 118245 0 0 $X=395535 $Y=118245
X172 4 MASCO__X12 $T=395920 64845 0 0 $X=395920 $Y=64845
X173 3 MASCO__X12 $T=397535 118245 0 0 $X=397535 $Y=118245
X174 4 MASCO__X12 $T=397920 64845 0 0 $X=397920 $Y=64845
X175 3 MASCO__X12 $T=399535 118245 0 0 $X=399535 $Y=118245
X176 4 MASCO__X12 $T=399920 64845 0 0 $X=399920 $Y=64845
X177 3 MASCO__X12 $T=401535 118245 0 0 $X=401535 $Y=118245
X178 4 MASCO__X12 $T=401920 64845 0 0 $X=401920 $Y=64845
X179 3 MASCO__X12 $T=403535 118245 0 0 $X=403535 $Y=118245
X180 4 MASCO__X12 $T=403920 64845 0 0 $X=403920 $Y=64845
X181 3 MASCO__X12 $T=407535 118245 0 0 $X=407535 $Y=118245
X182 4 MASCO__X12 $T=407920 64845 0 0 $X=407920 $Y=64845
X183 3 MASCO__X12 $T=409535 118245 0 0 $X=409535 $Y=118245
X184 4 MASCO__X12 $T=409920 64845 0 0 $X=409920 $Y=64845
X185 3 MASCO__X12 $T=411535 118245 0 0 $X=411535 $Y=118245
X186 4 MASCO__X12 $T=411920 64845 0 0 $X=411920 $Y=64845
X187 3 MASCO__X12 $T=413535 118245 0 0 $X=413535 $Y=118245
X188 4 MASCO__X12 $T=413920 64845 0 0 $X=413920 $Y=64845
X189 3 MASCO__X14 $T=262535 119245 0 0 $X=262535 $Y=119245
X190 3 MASCO__X14 $T=264535 119245 0 0 $X=264535 $Y=119245
X191 3 MASCO__X14 $T=266535 119245 0 0 $X=266535 $Y=119245
X192 3 MASCO__X14 $T=268535 119245 0 0 $X=268535 $Y=119245
X193 3 MASCO__X14 $T=270535 119245 0 0 $X=270535 $Y=119245
X194 3 MASCO__X14 $T=272535 119245 0 0 $X=272535 $Y=119245
X195 3 MASCO__X14 $T=274535 119245 0 0 $X=274535 $Y=119245
X196 3 MASCO__X14 $T=276535 119245 0 0 $X=276535 $Y=119245
X197 3 MASCO__X14 $T=278535 119245 0 0 $X=278535 $Y=119245
X198 3 MASCO__X14 $T=298535 119245 0 0 $X=298535 $Y=119245
X199 3 MASCO__X14 $T=300535 119245 0 0 $X=300535 $Y=119245
X200 3 MASCO__X14 $T=302535 119245 0 0 $X=302535 $Y=119245
X201 3 MASCO__X14 $T=304535 119245 0 0 $X=304535 $Y=119245
X202 3 MASCO__X14 $T=306535 119245 0 0 $X=306535 $Y=119245
X203 3 MASCO__X14 $T=308535 119245 0 0 $X=308535 $Y=119245
X204 3 MASCO__X14 $T=310535 119245 0 0 $X=310535 $Y=119245
X205 3 MASCO__X14 $T=312535 119245 0 0 $X=312535 $Y=119245
X206 3 MASCO__X14 $T=314535 119245 0 0 $X=314535 $Y=119245
X207 3 MASCO__X14 $T=316535 119245 0 0 $X=316535 $Y=119245
X208 3 MASCO__X14 $T=318535 119245 0 0 $X=318535 $Y=119245
X209 3 MASCO__X14 $T=320535 119245 0 0 $X=320535 $Y=119245
X210 3 MASCO__X14 $T=322535 119245 0 0 $X=322535 $Y=119245
X211 3 MASCO__X14 $T=324535 119245 0 0 $X=324535 $Y=119245
X212 3 MASCO__X14 $T=326535 119245 0 0 $X=326535 $Y=119245
X213 3 MASCO__X14 $T=328535 119245 0 0 $X=328535 $Y=119245
X214 3 MASCO__X14 $T=330535 119245 0 0 $X=330535 $Y=119245
X215 3 MASCO__X14 $T=332535 119245 0 0 $X=332535 $Y=119245
X216 3 MASCO__X14 $T=334535 119245 0 0 $X=334535 $Y=119245
X217 3 MASCO__X14 $T=336535 119245 0 0 $X=336535 $Y=119245
X218 3 MASCO__X14 $T=338535 119245 0 0 $X=338535 $Y=119245
X219 3 MASCO__X14 $T=340535 119245 0 0 $X=340535 $Y=119245
X220 3 MASCO__X14 $T=342535 119245 0 0 $X=342535 $Y=119245
X221 3 MASCO__X14 $T=344535 119245 0 0 $X=344535 $Y=119245
X222 3 MASCO__X14 $T=346535 119245 0 0 $X=346535 $Y=119245
X223 3 MASCO__X14 $T=348535 119245 0 0 $X=348535 $Y=119245
X224 3 MASCO__X14 $T=350535 119245 0 0 $X=350535 $Y=119245
X225 3 MASCO__X14 $T=352535 119245 0 0 $X=352535 $Y=119245
X226 3 MASCO__X14 $T=354535 119245 0 0 $X=354535 $Y=119245
X227 3 MASCO__X14 $T=356535 119245 0 0 $X=356535 $Y=119245
X228 3 MASCO__X14 $T=358535 119245 0 0 $X=358535 $Y=119245
X229 3 MASCO__X14 $T=360535 119245 0 0 $X=360535 $Y=119245
X230 3 MASCO__X14 $T=362535 119245 0 0 $X=362535 $Y=119245
X231 3 MASCO__X14 $T=364535 119245 0 0 $X=364535 $Y=119245
X232 3 MASCO__X14 $T=366535 119245 0 0 $X=366535 $Y=119245
X233 3 MASCO__X14 $T=368535 119245 0 0 $X=368535 $Y=119245
X234 3 MASCO__X14 $T=370535 119245 0 0 $X=370535 $Y=119245
X235 3 MASCO__X14 $T=372535 119245 0 0 $X=372535 $Y=119245
X236 3 MASCO__X14 $T=374535 119245 0 0 $X=374535 $Y=119245
X237 3 MASCO__X14 $T=376535 119245 0 0 $X=376535 $Y=119245
X238 4 MASCO__X14 $T=376920 64845 0 0 $X=376920 $Y=64845
X239 3 MASCO__X14 $T=378535 119245 0 0 $X=378535 $Y=119245
X240 4 MASCO__X14 $T=378920 64845 0 0 $X=378920 $Y=64845
X241 3 MASCO__X14 $T=380535 119245 0 0 $X=380535 $Y=119245
X242 4 MASCO__X14 $T=380920 64845 0 0 $X=380920 $Y=64845
X243 3 MASCO__X14 $T=382535 119245 0 0 $X=382535 $Y=119245
X244 4 MASCO__X14 $T=382920 64845 0 0 $X=382920 $Y=64845
X245 3 MASCO__X14 $T=384535 119245 0 0 $X=384535 $Y=119245
X246 4 MASCO__X14 $T=384920 64845 0 0 $X=384920 $Y=64845
X247 3 MASCO__X14 $T=386535 119245 0 0 $X=386535 $Y=119245
X248 4 MASCO__X14 $T=386920 64845 0 0 $X=386920 $Y=64845
X249 3 MASCO__X14 $T=388535 119245 0 0 $X=388535 $Y=119245
X250 4 MASCO__X14 $T=388920 64845 0 0 $X=388920 $Y=64845
X251 3 MASCO__X14 $T=390535 119245 0 0 $X=390535 $Y=119245
X252 4 MASCO__X14 $T=390920 64845 0 0 $X=390920 $Y=64845
X253 3 MASCO__X14 $T=392535 119245 0 0 $X=392535 $Y=119245
X254 4 MASCO__X14 $T=392920 64845 0 0 $X=392920 $Y=64845
X255 3 MASCO__X14 $T=394535 119245 0 0 $X=394535 $Y=119245
X256 4 MASCO__X14 $T=394920 64845 0 0 $X=394920 $Y=64845
X257 3 MASCO__X14 $T=396535 119245 0 0 $X=396535 $Y=119245
X258 4 MASCO__X14 $T=396920 64845 0 0 $X=396920 $Y=64845
X259 3 MASCO__X14 $T=398535 119245 0 0 $X=398535 $Y=119245
X260 4 MASCO__X14 $T=398920 64845 0 0 $X=398920 $Y=64845
X261 3 MASCO__X14 $T=400535 119245 0 0 $X=400535 $Y=119245
X262 4 MASCO__X14 $T=400920 64845 0 0 $X=400920 $Y=64845
X263 3 MASCO__X14 $T=402535 119245 0 0 $X=402535 $Y=119245
X264 4 MASCO__X14 $T=402920 64845 0 0 $X=402920 $Y=64845
X265 4 MASCO__X14 $T=404920 64845 0 0 $X=404920 $Y=64845
X266 3 MASCO__X14 $T=406535 119245 0 0 $X=406535 $Y=119245
X267 4 MASCO__X14 $T=406920 64845 0 0 $X=406920 $Y=64845
X268 3 MASCO__X14 $T=408535 119245 0 0 $X=408535 $Y=119245
X269 4 MASCO__X14 $T=408920 64845 0 0 $X=408920 $Y=64845
X270 3 MASCO__X14 $T=410535 119245 0 0 $X=410535 $Y=119245
X271 4 MASCO__X14 $T=410920 64845 0 0 $X=410920 $Y=64845
X272 3 MASCO__X14 $T=412535 119245 0 0 $X=412535 $Y=119245
X273 4 MASCO__X14 $T=412920 64845 0 0 $X=412920 $Y=64845
X274 3 MASCO__Y18 $T=262535 117005 0 0 $X=262535 $Y=117005
X275 4 MASCO__Y18 $T=263920 74845 0 0 $X=263920 $Y=74845
X276 3 MASCO__Y18 $T=274535 117005 0 0 $X=274535 $Y=117005
X277 4 MASCO__Y18 $T=275920 74845 0 0 $X=275920 $Y=74845
X278 4 MASCO__Y18 $T=287920 74845 0 0 $X=287920 $Y=74845
X279 3 MASCO__Y18 $T=298535 117005 0 0 $X=298535 $Y=117005
X280 4 MASCO__Y18 $T=299920 74845 0 0 $X=299920 $Y=74845
X281 3 MASCO__Y18 $T=310535 117005 0 0 $X=310535 $Y=117005
X282 4 MASCO__Y18 $T=311920 74845 0 0 $X=311920 $Y=74845
X283 3 MASCO__Y18 $T=322535 117005 0 0 $X=322535 $Y=117005
X284 4 MASCO__Y18 $T=323920 74845 0 0 $X=323920 $Y=74845
X285 3 MASCO__Y18 $T=334535 117005 0 0 $X=334535 $Y=117005
X286 4 MASCO__Y18 $T=335920 74845 0 0 $X=335920 $Y=74845
X287 3 MASCO__Y18 $T=346535 117005 0 0 $X=346535 $Y=117005
X288 4 MASCO__Y18 $T=347920 74845 0 0 $X=347920 $Y=74845
X289 3 MASCO__Y18 $T=358535 117005 0 0 $X=358535 $Y=117005
X290 4 MASCO__Y18 $T=359920 74845 0 0 $X=359920 $Y=74845
X291 3 MASCO__Y18 $T=370535 117005 0 0 $X=370535 $Y=117005
X292 4 MASCO__Y18 $T=376920 74845 0 0 $X=376920 $Y=74845
X293 3 MASCO__Y18 $T=382535 117005 0 0 $X=382535 $Y=117005
X294 4 MASCO__Y18 $T=388920 74845 0 0 $X=388920 $Y=74845
X295 4 MASCO__Y25 $T=262920 64845 0 0 $X=262920 $Y=64845
X296 4 MASCO__Y25 $T=278920 64845 0 0 $X=278920 $Y=64845
X297 3 MASCO__Y25 $T=280535 119245 0 0 $X=280535 $Y=119245
X298 4 MASCO__Y25 $T=294920 64845 0 0 $X=294920 $Y=64845
X299 4 MASCO__Y25 $T=310920 64845 0 0 $X=310920 $Y=64845
X300 4 MASCO__Y25 $T=326920 64845 0 0 $X=326920 $Y=64845
X301 4 MASCO__Y25 $T=342920 64845 0 0 $X=342920 $Y=64845
X302 4 MASCO__Y25 $T=358920 64845 0 0 $X=358920 $Y=64845
X303 4 MASCO__Y26 $T=263920 64845 0 0 $X=263920 $Y=64845
X304 4 MASCO__Y26 $T=279920 64845 0 0 $X=279920 $Y=64845
X305 3 MASCO__Y26 $T=281535 118245 0 0 $X=281535 $Y=118245
X306 4 MASCO__Y26 $T=295920 64845 0 0 $X=295920 $Y=64845
X307 4 MASCO__Y26 $T=311920 64845 0 0 $X=311920 $Y=64845
X308 4 MASCO__Y26 $T=327920 64845 0 0 $X=327920 $Y=64845
X309 4 MASCO__Y26 $T=343920 64845 0 0 $X=343920 $Y=64845
X310 4 MASCO__Y26 $T=359920 64845 0 0 $X=359920 $Y=64845
.ends MASCO__H1

* +++++++++++++++++++++++++++++++++++++++++++++++++++++++++ *
* Sub cell: VIA2_C_CDNS_723105204525                        *
* +++++++++++++++++++++++++++++++++++++++++++++++++++++++++ *
.subckt VIA2_C_CDNS_723105204525 1
** N=1 EP=1 FDC=0
.ends VIA2_C_CDNS_723105204525
