** Schematic Netlist, pvs precompare
** 

.subckt emir_test_2 gnda vdda 
RRR7 gnda vdda RPP1K1 W=5e-06 L=2.5e-05 m=1 R=1447.51 
RRR6 gnda vdda RPP1K1 W=5e-06 L=2.5e-05 m=1 R=1447.51 
RRR5 gnda vdda RPP1K1 W=5e-06 L=2.5e-05 m=1 R=1447.51 
RRR4 gnda vdda RPP1K1 W=5e-06 L=2.5e-05 m=1 R=1447.51 
RRR1 gnda vdda RPP1K1 W=5e-06 L=2.5e-05 m=1 R=1447.51 
RRR0 gnda vdda RPP1K1 W=5e-06 L=2.5e-05 m=1 R=1447.51 
RRR11 gnda vdda RPP1K1 W=5e-06 L=2.5e-05 m=1 R=1447.51 
.ends


