** Layout Netlist, pvs precompare
** 

.subckt emir_test_2 gnda vdda 
RX8/R0 gnda vdda RPP1K1 L=2.5e-05 W=5e-06 m=1 
RX9/R0 gnda vdda RPP1K1 L=2.5e-05 W=5e-06 m=1 
RX10/R0 gnda vdda RPP1K1 L=2.5e-05 W=5e-06 m=1 
RX11/R0 vdda gnda RPP1K1 L=2.5e-05 W=5e-06 m=1 
RX12/R0 vdda gnda RPP1K1 L=2.5e-05 W=5e-06 m=1 
RX13/R0 vdda gnda RPP1K1 L=2.5e-05 W=5e-06 m=1 
RX14/R0 vdda gnda RPP1K1 L=2.5e-05 W=5e-06 m=1 
.ends


