***SUBCKT-DEFINITIONS***
.SUBCKT MOSVC3 G NW SB
.ENDS
.SUBCKT NE3I_6 D G S B NW SB
.ENDS
.SUBCKT nedia D G S SB
.ENDS
