** Layout Netlist, pvs precompare
** 

.subckt NE3I_6 D G S B NW SB 
*.SWAP  (p D S)
.ends


.subckt dac6b_amp_n2 BIAS D0 D1 D2 D3 D4 D5 ENABLE GNDA VDDA VOUT VREF 
MX1102/M0 4 4 VDDA VDDA PE3 L=1e-05 W=1e-05 AD=4.8e-12 AS=4.8e-12 PD=2.096e-05 PS=2.096e-05 m=1 
MX1103/M0 10 4 VDDA VDDA PE3 L=1e-05 W=1e-05 AD=4.8e-12 AS=4.8e-12 PD=2.096e-05 PS=2.096e-05 m=1 
MX1104/M0 VDDA VDDA VDDA VDDA PE3 L=1e-05 W=1e-05 AD=4.8e-12 AS=4.8e-12 PD=2.096e-05 PS=2.096e-05 m=1 
MX1105/M0 6 6 VDDA VDDA PE3 L=1e-05 W=1e-05 AD=4.8e-12 AS=4.8e-12 PD=2.096e-05 PS=2.096e-05 m=1 
MX1106/M0 7 6 VDDA VDDA PE3 L=1e-05 W=1e-05 AD=4.8e-12 AS=4.8e-12 PD=2.096e-05 PS=2.096e-05 m=1 
MX1107/M0 6 6 VDDA VDDA PE3 L=1e-05 W=1e-05 AD=4.8e-12 AS=4.8e-12 PD=2.096e-05 PS=2.096e-05 m=1 
MX1108/M0 7 6 VDDA VDDA PE3 L=1e-05 W=1e-05 AD=4.8e-12 AS=4.8e-12 PD=2.096e-05 PS=2.096e-05 m=1 
MX1109/M0 6 6 VDDA VDDA PE3 L=1e-05 W=1e-05 AD=4.8e-12 AS=4.8e-12 PD=2.096e-05 PS=2.096e-05 m=1 
MX1110/M0 7 6 VDDA VDDA PE3 L=1e-05 W=1e-05 AD=4.8e-12 AS=4.8e-12 PD=2.096e-05 PS=2.096e-05 m=1 
MX1111/M0 6 6 VDDA VDDA PE3 L=1e-05 W=1e-05 AD=4.8e-12 AS=4.8e-12 PD=2.096e-05 PS=2.096e-05 m=1 
MX1112/M0 7 6 VDDA VDDA PE3 L=1e-05 W=1e-05 AD=4.8e-12 AS=4.8e-12 PD=2.096e-05 PS=2.096e-05 m=1 
MX1113/M0 VDDA VDDA VDDA VDDA PE3 L=1e-05 W=1e-05 AD=4.8e-12 AS=4.8e-12 PD=2.096e-05 PS=2.096e-05 m=1 
MX1114/M0 VDDA VDDA VDDA VDDA PE3 L=1e-05 W=1e-05 AD=4.8e-12 AS=4.8e-12 PD=2.096e-05 PS=2.096e-05 m=1 
MX1115/M0 VDDA VDDA VDDA VDDA PE3 L=1e-05 W=1e-05 AD=4.8e-12 AS=4.8e-12 PD=2.096e-05 PS=2.096e-05 m=1 
MX1116/M0 VDDA VDDA VDDA VDDA PE3 L=1e-05 W=1e-05 AD=4.8e-12 AS=4.8e-12 PD=2.096e-05 PS=2.096e-05 m=1 
MX1117/M0 VDDA VDDA VDDA VDDA PE3 L=1e-05 W=1e-05 AD=4.8e-12 AS=4.8e-12 PD=2.096e-05 PS=2.096e-05 m=1 
MX1118/M0 VDDA VDDA VDDA VDDA PE3 L=1e-05 W=1e-05 AD=4.8e-12 AS=4.8e-12 PD=2.096e-05 PS=2.096e-05 m=1 
MX1119/M0 VDDA VDDA VDDA VDDA PE3 L=1e-05 W=1e-05 AD=4.8e-12 AS=4.8e-12 PD=2.096e-05 PS=2.096e-05 m=1 
MX1120/M0 VOUT 9 19 VDDA PE3 L=1e-06 W=1e-05 AD=4.8e-12 AS=4.8e-12 PD=2.096e-05 PS=2.096e-05 m=1 
MX1121/M0 VOUT 9 17 VDDA PE3 L=1e-06 W=1e-05 AD=2.7e-12 AS=4.8e-12 PD=1.054e-05 PS=2.096e-05 m=1 
MX1121/M1 17 9 VOUT VDDA PE3 L=1e-06 W=1e-05 AD=4.8e-12 AS=2.7e-12 PD=2.096e-05 PS=1.054e-05 m=1 
MX1122/M0 VOUT 9 20 VDDA PE3 L=1e-06 W=1e-05 AD=2.7e-12 AS=4.8e-12 PD=1.054e-05 PS=2.096e-05 m=1 
MX1122/M1 20 9 VOUT VDDA PE3 L=1e-06 W=1e-05 AD=2.7e-12 AS=2.7e-12 PD=1.054e-05 PS=1.054e-05 m=1 
MX1122/M2 VOUT 9 20 VDDA PE3 L=1e-06 W=1e-05 AD=2.7e-12 AS=2.7e-12 PD=1.054e-05 PS=1.054e-05 m=1 
MX1122/M3 20 9 VOUT VDDA PE3 L=1e-06 W=1e-05 AD=4.8e-12 AS=2.7e-12 PD=2.096e-05 PS=1.054e-05 m=1 
MX1123/M0 VOUT 9 16 VDDA PE3 L=1e-06 W=1e-05 AD=2.7e-12 AS=4.8e-12 PD=1.054e-05 PS=2.096e-05 m=1 
MX1123/M1 16 9 VOUT VDDA PE3 L=1e-06 W=1e-05 AD=2.7e-12 AS=2.7e-12 PD=1.054e-05 PS=1.054e-05 m=1 
MX1123/M2 VOUT 9 16 VDDA PE3 L=1e-06 W=1e-05 AD=2.7e-12 AS=2.7e-12 PD=1.054e-05 PS=1.054e-05 m=1 
MX1123/M3 16 9 VOUT VDDA PE3 L=1e-06 W=1e-05 AD=2.7e-12 AS=2.7e-12 PD=1.054e-05 PS=1.054e-05 m=1 
MX1123/M4 VOUT 9 16 VDDA PE3 L=1e-06 W=1e-05 AD=2.7e-12 AS=2.7e-12 PD=1.054e-05 PS=1.054e-05 m=1 
MX1123/M5 16 9 VOUT VDDA PE3 L=1e-06 W=1e-05 AD=2.7e-12 AS=2.7e-12 PD=1.054e-05 PS=1.054e-05 m=1 
MX1123/M6 VOUT 9 16 VDDA PE3 L=1e-06 W=1e-05 AD=2.7e-12 AS=2.7e-12 PD=1.054e-05 PS=1.054e-05 m=1 
MX1123/M7 16 9 VOUT VDDA PE3 L=1e-06 W=1e-05 AD=4.8e-12 AS=2.7e-12 PD=2.096e-05 PS=1.054e-05 m=1 
MX1124/M0 VOUT 9 15 VDDA PE3 L=1e-06 W=1e-05 AD=2.7e-12 AS=4.8e-12 PD=1.054e-05 PS=2.096e-05 m=1 
MX1124/M1 15 9 VOUT VDDA PE3 L=1e-06 W=1e-05 AD=2.7e-12 AS=2.7e-12 PD=1.054e-05 PS=1.054e-05 m=1 
MX1124/M2 VOUT 9 15 VDDA PE3 L=1e-06 W=1e-05 AD=2.7e-12 AS=2.7e-12 PD=1.054e-05 PS=1.054e-05 m=1 
MX1124/M3 15 9 VOUT VDDA PE3 L=1e-06 W=1e-05 AD=2.7e-12 AS=2.7e-12 PD=1.054e-05 PS=1.054e-05 m=1 
MX1124/M4 VOUT 9 15 VDDA PE3 L=1e-06 W=1e-05 AD=2.7e-12 AS=2.7e-12 PD=1.054e-05 PS=1.054e-05 m=1 
MX1124/M5 15 9 VOUT VDDA PE3 L=1e-06 W=1e-05 AD=2.7e-12 AS=2.7e-12 PD=1.054e-05 PS=1.054e-05 m=1 
MX1124/M6 VOUT 9 15 VDDA PE3 L=1e-06 W=1e-05 AD=2.7e-12 AS=2.7e-12 PD=1.054e-05 PS=1.054e-05 m=1 
MX1124/M7 15 9 VOUT VDDA PE3 L=1e-06 W=1e-05 AD=2.7e-12 AS=2.7e-12 PD=1.054e-05 PS=1.054e-05 m=1 
MX1124/M8 VOUT 9 15 VDDA PE3 L=1e-06 W=1e-05 AD=2.7e-12 AS=2.7e-12 PD=1.054e-05 PS=1.054e-05 m=1 
MX1124/M9 15 9 VOUT VDDA PE3 L=1e-06 W=1e-05 AD=2.7e-12 AS=2.7e-12 PD=1.054e-05 PS=1.054e-05 m=1 
MX1124/M10 VOUT 9 15 VDDA PE3 L=1e-06 W=1e-05 AD=2.7e-12 AS=2.7e-12 PD=1.054e-05 PS=1.054e-05 m=1 
MX1124/M11 15 9 VOUT VDDA PE3 L=1e-06 W=1e-05 AD=2.7e-12 AS=2.7e-12 PD=1.054e-05 PS=1.054e-05 m=1 
MX1124/M12 VOUT 9 15 VDDA PE3 L=1e-06 W=1e-05 AD=2.7e-12 AS=2.7e-12 PD=1.054e-05 PS=1.054e-05 m=1 
MX1124/M13 15 9 VOUT VDDA PE3 L=1e-06 W=1e-05 AD=2.7e-12 AS=2.7e-12 PD=1.054e-05 PS=1.054e-05 m=1 
MX1124/M14 VOUT 9 15 VDDA PE3 L=1e-06 W=1e-05 AD=2.7e-12 AS=2.7e-12 PD=1.054e-05 PS=1.054e-05 m=1 
MX1124/M15 15 9 VOUT VDDA PE3 L=1e-06 W=1e-05 AD=4.8e-12 AS=2.7e-12 PD=2.096e-05 PS=1.054e-05 m=1 
MX1125/M0 VOUT 9 14 VDDA PE3 L=1e-06 W=1e-05 AD=2.7e-12 AS=4.8e-12 PD=1.054e-05 PS=2.096e-05 m=1 
MX1125/M1 14 9 VOUT VDDA PE3 L=1e-06 W=1e-05 AD=2.7e-12 AS=2.7e-12 PD=1.054e-05 PS=1.054e-05 m=1 
MX1125/M2 VOUT 9 14 VDDA PE3 L=1e-06 W=1e-05 AD=2.7e-12 AS=2.7e-12 PD=1.054e-05 PS=1.054e-05 m=1 
MX1125/M3 14 9 VOUT VDDA PE3 L=1e-06 W=1e-05 AD=2.7e-12 AS=2.7e-12 PD=1.054e-05 PS=1.054e-05 m=1 
MX1125/M4 VOUT 9 14 VDDA PE3 L=1e-06 W=1e-05 AD=2.7e-12 AS=2.7e-12 PD=1.054e-05 PS=1.054e-05 m=1 
MX1125/M5 14 9 VOUT VDDA PE3 L=1e-06 W=1e-05 AD=2.7e-12 AS=2.7e-12 PD=1.054e-05 PS=1.054e-05 m=1 
MX1125/M6 VOUT 9 14 VDDA PE3 L=1e-06 W=1e-05 AD=2.7e-12 AS=2.7e-12 PD=1.054e-05 PS=1.054e-05 m=1 
MX1125/M7 14 9 VOUT VDDA PE3 L=1e-06 W=1e-05 AD=2.7e-12 AS=2.7e-12 PD=1.054e-05 PS=1.054e-05 m=1 
MX1125/M8 VOUT 9 14 VDDA PE3 L=1e-06 W=1e-05 AD=2.7e-12 AS=2.7e-12 PD=1.054e-05 PS=1.054e-05 m=1 
MX1125/M9 14 9 VOUT VDDA PE3 L=1e-06 W=1e-05 AD=2.7e-12 AS=2.7e-12 PD=1.054e-05 PS=1.054e-05 m=1 
MX1125/M10 VOUT 9 14 VDDA PE3 L=1e-06 W=1e-05 AD=2.7e-12 AS=2.7e-12 PD=1.054e-05 PS=1.054e-05 m=1 
MX1125/M11 14 9 VOUT VDDA PE3 L=1e-06 W=1e-05 AD=2.7e-12 AS=2.7e-12 PD=1.054e-05 PS=1.054e-05 m=1 
MX1125/M12 VOUT 9 14 VDDA PE3 L=1e-06 W=1e-05 AD=2.7e-12 AS=2.7e-12 PD=1.054e-05 PS=1.054e-05 m=1 
MX1125/M13 14 9 VOUT VDDA PE3 L=1e-06 W=1e-05 AD=2.7e-12 AS=2.7e-12 PD=1.054e-05 PS=1.054e-05 m=1 
MX1125/M14 VOUT 9 14 VDDA PE3 L=1e-06 W=1e-05 AD=2.7e-12 AS=2.7e-12 PD=1.054e-05 PS=1.054e-05 m=1 
MX1125/M15 14 9 VOUT VDDA PE3 L=1e-06 W=1e-05 AD=2.7e-12 AS=2.7e-12 PD=1.054e-05 PS=1.054e-05 m=1 
MX1125/M16 VOUT 9 14 VDDA PE3 L=1e-06 W=1e-05 AD=2.7e-12 AS=2.7e-12 PD=1.054e-05 PS=1.054e-05 m=1 
MX1125/M17 14 9 VOUT VDDA PE3 L=1e-06 W=1e-05 AD=2.7e-12 AS=2.7e-12 PD=1.054e-05 PS=1.054e-05 m=1 
MX1125/M18 VOUT 9 14 VDDA PE3 L=1e-06 W=1e-05 AD=2.7e-12 AS=2.7e-12 PD=1.054e-05 PS=1.054e-05 m=1 
MX1125/M19 14 9 VOUT VDDA PE3 L=1e-06 W=1e-05 AD=2.7e-12 AS=2.7e-12 PD=1.054e-05 PS=1.054e-05 m=1 
MX1125/M20 VOUT 9 14 VDDA PE3 L=1e-06 W=1e-05 AD=2.7e-12 AS=2.7e-12 PD=1.054e-05 PS=1.054e-05 m=1 
MX1125/M21 14 9 VOUT VDDA PE3 L=1e-06 W=1e-05 AD=2.7e-12 AS=2.7e-12 PD=1.054e-05 PS=1.054e-05 m=1 
MX1125/M22 VOUT 9 14 VDDA PE3 L=1e-06 W=1e-05 AD=2.7e-12 AS=2.7e-12 PD=1.054e-05 PS=1.054e-05 m=1 
MX1125/M23 14 9 VOUT VDDA PE3 L=1e-06 W=1e-05 AD=2.7e-12 AS=2.7e-12 PD=1.054e-05 PS=1.054e-05 m=1 
MX1125/M24 VOUT 9 14 VDDA PE3 L=1e-06 W=1e-05 AD=2.7e-12 AS=2.7e-12 PD=1.054e-05 PS=1.054e-05 m=1 
MX1125/M25 14 9 VOUT VDDA PE3 L=1e-06 W=1e-05 AD=2.7e-12 AS=2.7e-12 PD=1.054e-05 PS=1.054e-05 m=1 
MX1125/M26 VOUT 9 14 VDDA PE3 L=1e-06 W=1e-05 AD=2.7e-12 AS=2.7e-12 PD=1.054e-05 PS=1.054e-05 m=1 
MX1125/M27 14 9 VOUT VDDA PE3 L=1e-06 W=1e-05 AD=2.7e-12 AS=2.7e-12 PD=1.054e-05 PS=1.054e-05 m=1 
MX1125/M28 VOUT 9 14 VDDA PE3 L=1e-06 W=1e-05 AD=2.7e-12 AS=2.7e-12 PD=1.054e-05 PS=1.054e-05 m=1 
MX1125/M29 14 9 VOUT VDDA PE3 L=1e-06 W=1e-05 AD=2.7e-12 AS=2.7e-12 PD=1.054e-05 PS=1.054e-05 m=1 
MX1125/M30 VOUT 9 14 VDDA PE3 L=1e-06 W=1e-05 AD=2.7e-12 AS=2.7e-12 PD=1.054e-05 PS=1.054e-05 m=1 
MX1125/M31 14 9 VOUT VDDA PE3 L=1e-06 W=1e-05 AD=4.8e-12 AS=2.7e-12 PD=2.096e-05 PS=1.054e-05 m=1 
RX1126/R0 GNDA VOUT RPP1K1_3 L=0.00021702 W=4e-06 m=1 $SUB=GNDA 
MX1127/M0 21 9 18 VDDA PE3 L=1e-06 W=1e-05 AD=2.7e-12 AS=4.8e-12 PD=1.054e-05 PS=2.096e-05 m=1 
MX1127/M1 18 9 21 VDDA PE3 L=1e-06 W=1e-05 AD=2.7e-12 AS=2.7e-12 PD=1.054e-05 PS=1.054e-05 m=1 
MX1127/M2 21 9 18 VDDA PE3 L=1e-06 W=1e-05 AD=2.7e-12 AS=2.7e-12 PD=1.054e-05 PS=1.054e-05 m=1 
MX1127/M3 18 9 21 VDDA PE3 L=1e-06 W=1e-05 AD=2.7e-12 AS=2.7e-12 PD=1.054e-05 PS=1.054e-05 m=1 
MX1127/M4 21 9 18 VDDA PE3 L=1e-06 W=1e-05 AD=2.7e-12 AS=2.7e-12 PD=1.054e-05 PS=1.054e-05 m=1 
MX1127/M5 18 9 21 VDDA PE3 L=1e-06 W=1e-05 AD=2.7e-12 AS=2.7e-12 PD=1.054e-05 PS=1.054e-05 m=1 
MX1127/M6 21 9 18 VDDA PE3 L=1e-06 W=1e-05 AD=2.7e-12 AS=2.7e-12 PD=1.054e-05 PS=1.054e-05 m=1 
MX1127/M7 18 9 21 VDDA PE3 L=1e-06 W=1e-05 AD=2.7e-12 AS=2.7e-12 PD=1.054e-05 PS=1.054e-05 m=1 
MX1127/M8 21 9 18 VDDA PE3 L=1e-06 W=1e-05 AD=2.7e-12 AS=2.7e-12 PD=1.054e-05 PS=1.054e-05 m=1 
MX1127/M9 18 9 21 VDDA PE3 L=1e-06 W=1e-05 AD=4.8e-12 AS=2.7e-12 PD=2.096e-05 PS=1.054e-05 m=1 
RX1128/R0 GNDA 21 RPP1K1_3 L=0.0008227 W=4e-06 m=1 $SUB=GNDA 
MX1129/M0 GNDA GNDA 8 8 PE3 L=2e-05 W=1e-05 AD=4.8e-12 AS=4.8e-12 PD=2.096e-05 PS=2.096e-05 m=1 
MX1130/M0 8 8 9 9 PE3 L=2e-05 W=1e-05 AD=4.8e-12 AS=4.8e-12 PD=2.096e-05 PS=2.096e-05 m=1 
MX1131/M0 9 9 10 10 PE3 L=2e-05 W=1e-05 AD=4.8e-12 AS=4.8e-12 PD=2.096e-05 PS=2.096e-05 m=1 
MX1132/M0 31 ENABLE VDDA VDDA PE3 L=3e-07 W=6e-06 AD=2.88e-12 AS=2.88e-12 PD=1.296e-05 PS=1.296e-05 m=1 
MX1133/M0 GNDA D5 14 VDDA PE3 L=3.5e-07 W=1e-05 AD=2.7e-12 AS=4.8e-12 PD=1.054e-05 PS=2.096e-05 m=1 
MX1133/M1 14 D5 GNDA VDDA PE3 L=3.5e-07 W=1e-05 AD=4.8e-12 AS=2.7e-12 PD=2.096e-05 PS=1.054e-05 m=1 
MX1134/M0 GNDA D4 15 VDDA PE3 L=3.5e-07 W=1e-05 AD=2.7e-12 AS=4.8e-12 PD=1.054e-05 PS=2.096e-05 m=1 
MX1134/M1 15 D4 GNDA VDDA PE3 L=3.5e-07 W=1e-05 AD=4.8e-12 AS=2.7e-12 PD=2.096e-05 PS=1.054e-05 m=1 
MX1135/M0 GNDA D3 16 VDDA PE3 L=3.5e-07 W=1e-05 AD=2.7e-12 AS=4.8e-12 PD=1.054e-05 PS=2.096e-05 m=1 
MX1135/M1 16 D3 GNDA VDDA PE3 L=3.5e-07 W=1e-05 AD=4.8e-12 AS=2.7e-12 PD=2.096e-05 PS=1.054e-05 m=1 
MX1136/M0 GNDA D2 20 VDDA PE3 L=3.5e-07 W=1e-05 AD=2.7e-12 AS=4.8e-12 PD=1.054e-05 PS=2.096e-05 m=1 
MX1136/M1 20 D2 GNDA VDDA PE3 L=3.5e-07 W=1e-05 AD=4.8e-12 AS=2.7e-12 PD=2.096e-05 PS=1.054e-05 m=1 
MX1137/M0 GNDA D1 17 VDDA PE3 L=3.5e-07 W=1e-05 AD=2.7e-12 AS=4.8e-12 PD=1.054e-05 PS=2.096e-05 m=1 
MX1137/M1 17 D1 GNDA VDDA PE3 L=3.5e-07 W=1e-05 AD=4.8e-12 AS=2.7e-12 PD=2.096e-05 PS=1.054e-05 m=1 
MX1138/M0 GNDA D0 19 VDDA PE3 L=3.5e-07 W=1e-05 AD=2.7e-12 AS=4.8e-12 PD=1.054e-05 PS=2.096e-05 m=1 
MX1138/M1 19 D0 GNDA VDDA PE3 L=3.5e-07 W=1e-05 AD=4.8e-12 AS=2.7e-12 PD=2.096e-05 PS=1.054e-05 m=1 
MX1139/M0 BIAS BIAS 1 GNDA NE3 L=2e-06 W=1e-05 AD=2.7e-12 AS=4.8e-12 PD=1.054e-05 PS=2.096e-05 m=1 
MX1139/M1 1 BIAS BIAS GNDA NE3 L=2e-06 W=1e-05 AD=2.7e-12 AS=2.7e-12 PD=1.054e-05 PS=1.054e-05 m=1 
MX1139/M2 BIAS BIAS 1 GNDA NE3 L=2e-06 W=1e-05 AD=2.7e-12 AS=2.7e-12 PD=1.054e-05 PS=1.054e-05 m=1 
MX1139/M3 1 BIAS BIAS GNDA NE3 L=2e-06 W=1e-05 AD=2.7e-12 AS=2.7e-12 PD=1.054e-05 PS=1.054e-05 m=1 
MX1139/M4 BIAS BIAS 1 GNDA NE3 L=2e-06 W=1e-05 AD=2.7e-12 AS=2.7e-12 PD=1.054e-05 PS=1.054e-05 m=1 
MX1139/M5 1 BIAS BIAS GNDA NE3 L=2e-06 W=1e-05 AD=2.7e-12 AS=2.7e-12 PD=1.054e-05 PS=1.054e-05 m=1 
MX1139/M6 BIAS BIAS 1 GNDA NE3 L=2e-06 W=1e-05 AD=2.7e-12 AS=2.7e-12 PD=1.054e-05 PS=1.054e-05 m=1 
MX1139/M7 1 BIAS BIAS GNDA NE3 L=2e-06 W=1e-05 AD=4.8e-12 AS=2.7e-12 PD=2.096e-05 PS=1.054e-05 m=1 
MX1140/M0 4 BIAS 3 GNDA NE3 L=2e-06 W=1e-05 AD=2.7e-12 AS=4.8e-12 PD=1.054e-05 PS=2.096e-05 m=1 
MX1140/M1 3 BIAS 4 GNDA NE3 L=2e-06 W=1e-05 AD=2.7e-12 AS=2.7e-12 PD=1.054e-05 PS=1.054e-05 m=1 
MX1140/M2 4 BIAS 3 GNDA NE3 L=2e-06 W=1e-05 AD=2.7e-12 AS=2.7e-12 PD=1.054e-05 PS=1.054e-05 m=1 
MX1140/M3 3 BIAS 4 GNDA NE3 L=2e-06 W=1e-05 AD=2.7e-12 AS=2.7e-12 PD=1.054e-05 PS=1.054e-05 m=1 
MX1140/M4 4 BIAS 3 GNDA NE3 L=2e-06 W=1e-05 AD=2.7e-12 AS=2.7e-12 PD=1.054e-05 PS=1.054e-05 m=1 
MX1140/M5 3 BIAS 4 GNDA NE3 L=2e-06 W=1e-05 AD=2.7e-12 AS=2.7e-12 PD=1.054e-05 PS=1.054e-05 m=1 
MX1140/M6 4 BIAS 3 GNDA NE3 L=2e-06 W=1e-05 AD=2.7e-12 AS=2.7e-12 PD=1.054e-05 PS=1.054e-05 m=1 
MX1140/M7 3 BIAS 4 GNDA NE3 L=2e-06 W=1e-05 AD=4.8e-12 AS=2.7e-12 PD=2.096e-05 PS=1.054e-05 m=1 
MX1141/M0 13 BIAS 12 GNDA NE3 L=2e-06 W=1e-05 AD=2.7e-12 AS=4.8e-12 PD=1.054e-05 PS=2.096e-05 m=1 
MX1141/M1 12 BIAS 13 GNDA NE3 L=2e-06 W=1e-05 AD=2.7e-12 AS=2.7e-12 PD=1.054e-05 PS=1.054e-05 m=1 
MX1141/M2 13 BIAS 12 GNDA NE3 L=2e-06 W=1e-05 AD=2.7e-12 AS=2.7e-12 PD=1.054e-05 PS=1.054e-05 m=1 
MX1141/M3 12 BIAS 13 GNDA NE3 L=2e-06 W=1e-05 AD=2.7e-12 AS=2.7e-12 PD=1.054e-05 PS=1.054e-05 m=1 
MX1141/M4 13 BIAS 12 GNDA NE3 L=2e-06 W=1e-05 AD=2.7e-12 AS=2.7e-12 PD=1.054e-05 PS=1.054e-05 m=1 
MX1141/M5 12 BIAS 13 GNDA NE3 L=2e-06 W=1e-05 AD=2.7e-12 AS=2.7e-12 PD=1.054e-05 PS=1.054e-05 m=1 
MX1141/M6 13 BIAS 12 GNDA NE3 L=2e-06 W=1e-05 AD=2.7e-12 AS=2.7e-12 PD=1.054e-05 PS=1.054e-05 m=1 
MX1141/M7 12 BIAS 13 GNDA NE3 L=2e-06 W=1e-05 AD=4.8e-12 AS=2.7e-12 PD=2.096e-05 PS=1.054e-05 m=1 
MX1142/M0 GNDA GNDA GNDA GNDA NE3 L=2e-06 W=1e-05 AD=4.8e-12 AS=4.8e-12 PD=2.096e-05 PS=2.096e-05 m=1 
MX1143/M0 GNDA GNDA GNDA GNDA NE3 L=2e-06 W=1e-05 AD=4.8e-12 AS=4.8e-12 PD=2.096e-05 PS=2.096e-05 m=1 
MX1144/M0 12 1 GNDA GNDA NE3 L=2e-06 W=1e-05 AD=4.8e-12 AS=4.8e-12 PD=2.096e-05 PS=2.096e-05 m=1 
MX1145/M0 1 1 GNDA GNDA NE3 L=2e-06 W=1e-05 AD=4.8e-12 AS=4.8e-12 PD=2.096e-05 PS=2.096e-05 m=1 
MX1146/M0 3 1 GNDA GNDA NE3 L=2e-06 W=1e-05 AD=4.8e-12 AS=4.8e-12 PD=2.096e-05 PS=2.096e-05 m=1 
MX1147/M0 12 1 GNDA GNDA NE3 L=2e-06 W=1e-05 AD=4.8e-12 AS=4.8e-12 PD=2.096e-05 PS=2.096e-05 m=1 
MX1148/M0 1 1 GNDA GNDA NE3 L=2e-06 W=1e-05 AD=4.8e-12 AS=4.8e-12 PD=2.096e-05 PS=2.096e-05 m=1 
MX1149/M0 3 1 GNDA GNDA NE3 L=2e-06 W=1e-05 AD=4.8e-12 AS=4.8e-12 PD=2.096e-05 PS=2.096e-05 m=1 
MX1150/M0 12 1 GNDA GNDA NE3 L=2e-06 W=1e-05 AD=4.8e-12 AS=4.8e-12 PD=2.096e-05 PS=2.096e-05 m=1 
MX1151/M0 1 1 GNDA GNDA NE3 L=2e-06 W=1e-05 AD=4.8e-12 AS=4.8e-12 PD=2.096e-05 PS=2.096e-05 m=1 
MX1152/M0 3 1 GNDA GNDA NE3 L=2e-06 W=1e-05 AD=4.8e-12 AS=4.8e-12 PD=2.096e-05 PS=2.096e-05 m=1 
MX1153/M0 12 1 GNDA GNDA NE3 L=2e-06 W=1e-05 AD=4.8e-12 AS=4.8e-12 PD=2.096e-05 PS=2.096e-05 m=1 
MX1154/M0 1 1 GNDA GNDA NE3 L=2e-06 W=1e-05 AD=4.8e-12 AS=4.8e-12 PD=2.096e-05 PS=2.096e-05 m=1 
MX1155/M0 3 1 GNDA GNDA NE3 L=2e-06 W=1e-05 AD=4.8e-12 AS=4.8e-12 PD=2.096e-05 PS=2.096e-05 m=1 
MX1156/M0 12 1 GNDA GNDA NE3 L=2e-06 W=1e-05 AD=4.8e-12 AS=4.8e-12 PD=2.096e-05 PS=2.096e-05 m=1 
MX1157/M0 1 1 GNDA GNDA NE3 L=2e-06 W=1e-05 AD=4.8e-12 AS=4.8e-12 PD=2.096e-05 PS=2.096e-05 m=1 
MX1158/M0 3 1 GNDA GNDA NE3 L=2e-06 W=1e-05 AD=4.8e-12 AS=4.8e-12 PD=2.096e-05 PS=2.096e-05 m=1 
MX1159/M0 12 1 GNDA GNDA NE3 L=2e-06 W=1e-05 AD=4.8e-12 AS=4.8e-12 PD=2.096e-05 PS=2.096e-05 m=1 
MX1160/M0 1 1 GNDA GNDA NE3 L=2e-06 W=1e-05 AD=4.8e-12 AS=4.8e-12 PD=2.096e-05 PS=2.096e-05 m=1 
MX1161/M0 3 1 GNDA GNDA NE3 L=2e-06 W=1e-05 AD=4.8e-12 AS=4.8e-12 PD=2.096e-05 PS=2.096e-05 m=1 
MX1162/M0 12 1 GNDA GNDA NE3 L=2e-06 W=1e-05 AD=4.8e-12 AS=4.8e-12 PD=2.096e-05 PS=2.096e-05 m=1 
MX1163/M0 1 1 GNDA GNDA NE3 L=2e-06 W=1e-05 AD=4.8e-12 AS=4.8e-12 PD=2.096e-05 PS=2.096e-05 m=1 
MX1164/M0 3 1 GNDA GNDA NE3 L=2e-06 W=1e-05 AD=4.8e-12 AS=4.8e-12 PD=2.096e-05 PS=2.096e-05 m=1 
MX1165/M0 12 1 GNDA GNDA NE3 L=2e-06 W=1e-05 AD=4.8e-12 AS=4.8e-12 PD=2.096e-05 PS=2.096e-05 m=1 
MX1166/M0 1 1 GNDA GNDA NE3 L=2e-06 W=1e-05 AD=4.8e-12 AS=4.8e-12 PD=2.096e-05 PS=2.096e-05 m=1 
MX1167/M0 3 1 GNDA GNDA NE3 L=2e-06 W=1e-05 AD=4.8e-12 AS=4.8e-12 PD=2.096e-05 PS=2.096e-05 m=1 
MX1168/M0 GNDA GNDA GNDA GNDA NE3 L=2e-06 W=1e-05 AD=4.8e-12 AS=4.8e-12 PD=2.096e-05 PS=2.096e-05 m=1 
MX1169/M0 GNDA GNDA GNDA GNDA NE3 L=2e-06 W=1e-05 AD=4.8e-12 AS=4.8e-12 PD=2.096e-05 PS=2.096e-05 m=1 
MX1170/M0 VDDA VDDA VDDA VDDA PE3 L=1e-05 W=2e-06 AD=9.6e-13 AS=9.6e-13 PD=4.96e-06 PS=4.96e-06 m=1 
MX1171/M0 VDDA VDDA VDDA VDDA PE3 L=1e-05 W=2e-06 AD=9.6e-13 AS=9.6e-13 PD=4.96e-06 PS=4.96e-06 m=1 
MX1172/M0 1 31 GNDA GNDA NE3 L=3.5e-07 W=1e-05 AD=2.7e-12 AS=4.8e-12 PD=1.054e-05 PS=2.096e-05 m=1 
MX1172/M1 GNDA 31 1 GNDA NE3 L=3.5e-07 W=1e-05 AD=2.7e-12 AS=2.7e-12 PD=1.054e-05 PS=1.054e-05 m=1 
MX1172/M2 1 31 GNDA GNDA NE3 L=3.5e-07 W=1e-05 AD=2.7e-12 AS=2.7e-12 PD=1.054e-05 PS=1.054e-05 m=1 
MX1172/M3 GNDA 31 1 GNDA NE3 L=3.5e-07 W=1e-05 AD=4.8e-12 AS=2.7e-12 PD=2.096e-05 PS=1.054e-05 m=1 
MX1173/M0 VOUT 31 GNDA GNDA NE3 L=3.5e-07 W=1e-05 AD=2.7e-12 AS=4.8e-12 PD=1.054e-05 PS=2.096e-05 m=1 
MX1173/M1 GNDA 31 VOUT GNDA NE3 L=3.5e-07 W=1e-05 AD=2.7e-12 AS=2.7e-12 PD=1.054e-05 PS=1.054e-05 m=1 
MX1173/M2 VOUT 31 GNDA GNDA NE3 L=3.5e-07 W=1e-05 AD=2.7e-12 AS=2.7e-12 PD=1.054e-05 PS=1.054e-05 m=1 
MX1173/M3 GNDA 31 VOUT GNDA NE3 L=3.5e-07 W=1e-05 AD=4.8e-12 AS=2.7e-12 PD=2.096e-05 PS=1.054e-05 m=1 
MX1174/M0 31 ENABLE GNDA GNDA NE3 L=3.5e-07 W=2e-06 AD=9.6e-13 AS=9.6e-13 PD=4.96e-06 PS=4.96e-06 m=1 
MX1175/X0/M0 VDDA VDDA VDDA VDDA PE3 L=1e-05 W=2e-06 AD=9.6e-13 AS=9.6e-13 PD=4.96e-06 PS=4.96e-06 m=1 
MX1175/X1/M0 VDDA VDDA VDDA VDDA PE3 L=1e-05 W=2e-06 AD=9.6e-13 AS=9.6e-13 PD=4.96e-06 PS=4.96e-06 m=1 
MX1176/X0/M0 VDDA VDDA VDDA VDDA PE3 L=1e-05 W=2e-06 AD=9.6e-13 AS=9.6e-13 PD=4.96e-06 PS=4.96e-06 m=1 
MX1176/X1/M0 VDDA VDDA VDDA VDDA PE3 L=1e-05 W=2e-06 AD=9.6e-13 AS=9.6e-13 PD=4.96e-06 PS=4.96e-06 m=1 
MX1177/X0/M0 VDDA VDDA VDDA VDDA PE3 L=1e-05 W=2e-06 AD=9.6e-13 AS=9.6e-13 PD=4.96e-06 PS=4.96e-06 m=1 
MX1177/X1/M0 VDDA VDDA VDDA VDDA PE3 L=1e-05 W=2e-06 AD=9.6e-13 AS=9.6e-13 PD=4.96e-06 PS=4.96e-06 m=1 
MX1178/X0/M0 VDDA VDDA VDDA VDDA PE3 L=1e-05 W=2e-06 AD=9.6e-13 AS=9.6e-13 PD=4.96e-06 PS=4.96e-06 m=1 
MX1178/X1/M0 VDDA VDDA VDDA VDDA PE3 L=1e-05 W=2e-06 AD=9.6e-13 AS=9.6e-13 PD=4.96e-06 PS=4.96e-06 m=1 
MX1179/X0/M0 VDDA VDDA VDDA VDDA PE3 L=1e-05 W=2e-06 AD=9.6e-13 AS=9.6e-13 PD=4.96e-06 PS=4.96e-06 m=1 
MX1179/X1/M0 VDDA VDDA VDDA VDDA PE3 L=1e-05 W=2e-06 AD=9.6e-13 AS=9.6e-13 PD=4.96e-06 PS=4.96e-06 m=1 
MX1180/X0/M0 VDDA VDDA VDDA VDDA PE3 L=1e-05 W=2e-06 AD=9.6e-13 AS=9.6e-13 PD=4.96e-06 PS=4.96e-06 m=1 
MX1180/X1/M0 VDDA VDDA VDDA VDDA PE3 L=1e-05 W=2e-06 AD=9.6e-13 AS=9.6e-13 PD=4.96e-06 PS=4.96e-06 m=1 
MX1181/X0/M0 VDDA VDDA VDDA VDDA PE3 L=1e-05 W=2e-06 AD=9.6e-13 AS=9.6e-13 PD=4.96e-06 PS=4.96e-06 m=1 
MX1181/X1/M0 VDDA VDDA VDDA VDDA PE3 L=1e-05 W=2e-06 AD=9.6e-13 AS=9.6e-13 PD=4.96e-06 PS=4.96e-06 m=1 
MX1182/X0/M0 VDDA VDDA VDDA VDDA PE3 L=1e-05 W=2e-06 AD=9.6e-13 AS=9.6e-13 PD=4.96e-06 PS=4.96e-06 m=1 
MX1182/X1/M0 VDDA VDDA VDDA VDDA PE3 L=1e-05 W=2e-06 AD=9.6e-13 AS=9.6e-13 PD=4.96e-06 PS=4.96e-06 m=1 
MX1183/X0/M0 VDDA VDDA VDDA VDDA PE3 L=1e-05 W=2e-06 AD=9.6e-13 AS=9.6e-13 PD=4.96e-06 PS=4.96e-06 m=1 
MX1183/X1/M0 VDDA VDDA VDDA VDDA PE3 L=1e-05 W=2e-06 AD=9.6e-13 AS=9.6e-13 PD=4.96e-06 PS=4.96e-06 m=1 
MX1184/X0/M0 VDDA VDDA VDDA VDDA PE3 L=1e-05 W=2e-06 AD=9.6e-13 AS=9.6e-13 PD=4.96e-06 PS=4.96e-06 m=1 
MX1184/X1/M0 VDDA VDDA VDDA VDDA PE3 L=1e-05 W=2e-06 AD=9.6e-13 AS=9.6e-13 PD=4.96e-06 PS=4.96e-06 m=1 
MX1185/X0/M0 VDDA VDDA VDDA VDDA PE3 L=1e-05 W=2e-06 AD=9.6e-13 AS=9.6e-13 PD=4.96e-06 PS=4.96e-06 m=1 
MX1185/X1/M0 VDDA VDDA VDDA VDDA PE3 L=1e-05 W=2e-06 AD=9.6e-13 AS=9.6e-13 PD=4.96e-06 PS=4.96e-06 m=1 
MX1186/X0/M0 VDDA VDDA VDDA VDDA PE3 L=1e-05 W=2e-06 AD=9.6e-13 AS=9.6e-13 PD=4.96e-06 PS=4.96e-06 m=1 
MX1186/X1/M0 VDDA VDDA VDDA VDDA PE3 L=1e-05 W=2e-06 AD=9.6e-13 AS=9.6e-13 PD=4.96e-06 PS=4.96e-06 m=1 
MX1187/X0/M0 VDDA VDDA VDDA VDDA PE3 L=1e-05 W=2e-06 AD=9.6e-13 AS=9.6e-13 PD=4.96e-06 PS=4.96e-06 m=1 
MX1187/X1/M0 VDDA VDDA VDDA VDDA PE3 L=1e-05 W=2e-06 AD=9.6e-13 AS=9.6e-13 PD=4.96e-06 PS=4.96e-06 m=1 
MX1188/X0/M0 VDDA VDDA VDDA VDDA PE3 L=1e-05 W=2e-06 AD=9.6e-13 AS=9.6e-13 PD=4.96e-06 PS=4.96e-06 m=1 
MX1188/X1/M0 VDDA VDDA VDDA VDDA PE3 L=1e-05 W=2e-06 AD=9.6e-13 AS=9.6e-13 PD=4.96e-06 PS=4.96e-06 m=1 
MX1189/X0/M0 10 4 VDDA VDDA PE3 L=1e-05 W=1e-05 AD=4.8e-12 AS=4.8e-12 PD=2.096e-05 PS=2.096e-05 m=1 
MX1189/X1/M0 4 4 VDDA VDDA PE3 L=1e-05 W=1e-05 AD=4.8e-12 AS=4.8e-12 PD=2.096e-05 PS=2.096e-05 m=1 
MX1190/X0/M0 6 6 VDDA VDDA PE3 L=1e-05 W=1e-05 AD=4.8e-12 AS=4.8e-12 PD=2.096e-05 PS=2.096e-05 m=1 
MX1190/X1/M0 VDDA VDDA VDDA VDDA PE3 L=1e-05 W=1e-05 AD=4.8e-12 AS=4.8e-12 PD=2.096e-05 PS=2.096e-05 m=1 
MX1191/X0/M0 VDDA VDDA VDDA VDDA PE3 L=1e-05 W=1e-05 AD=4.8e-12 AS=4.8e-12 PD=2.096e-05 PS=2.096e-05 m=1 
MX1191/X1/M0 VDDA VDDA VDDA VDDA PE3 L=1e-05 W=1e-05 AD=4.8e-12 AS=4.8e-12 PD=2.096e-05 PS=2.096e-05 m=1 
MX1192/X0/M0 14 7 VDDA VDDA PE3 L=1e-05 W=1e-05 AD=4.8e-12 AS=4.8e-12 PD=2.096e-05 PS=2.096e-05 m=1 
MX1192/X1/M0 14 7 VDDA VDDA PE3 L=1e-05 W=1e-05 AD=4.8e-12 AS=4.8e-12 PD=2.096e-05 PS=2.096e-05 m=1 
MX1193/X0/M0 14 7 VDDA VDDA PE3 L=1e-05 W=1e-05 AD=4.8e-12 AS=4.8e-12 PD=2.096e-05 PS=2.096e-05 m=1 
MX1193/X1/M0 14 7 VDDA VDDA PE3 L=1e-05 W=1e-05 AD=4.8e-12 AS=4.8e-12 PD=2.096e-05 PS=2.096e-05 m=1 
MX1194/X0/M0 14 7 VDDA VDDA PE3 L=1e-05 W=1e-05 AD=4.8e-12 AS=4.8e-12 PD=2.096e-05 PS=2.096e-05 m=1 
MX1194/X1/M0 14 7 VDDA VDDA PE3 L=1e-05 W=1e-05 AD=4.8e-12 AS=4.8e-12 PD=2.096e-05 PS=2.096e-05 m=1 
MX1195/X0/M0 14 7 VDDA VDDA PE3 L=1e-05 W=1e-05 AD=4.8e-12 AS=4.8e-12 PD=2.096e-05 PS=2.096e-05 m=1 
MX1195/X1/M0 14 7 VDDA VDDA PE3 L=1e-05 W=1e-05 AD=4.8e-12 AS=4.8e-12 PD=2.096e-05 PS=2.096e-05 m=1 
MX1196/X0/M0 14 7 VDDA VDDA PE3 L=1e-05 W=1e-05 AD=4.8e-12 AS=4.8e-12 PD=2.096e-05 PS=2.096e-05 m=1 
MX1196/X1/M0 14 7 VDDA VDDA PE3 L=1e-05 W=1e-05 AD=4.8e-12 AS=4.8e-12 PD=2.096e-05 PS=2.096e-05 m=1 
X1197/X0/X0/X0 13 13 13 13 VDDA GNDA NE3I_6 w=1e-05 l=2e-06 as=4.8e-12 ad=4.8e-12 ps=2.096e-05 pd=2.096e-05 m=1 
X1197/X0/X1/X0 13 VREF 7 13 VDDA GNDA NE3I_6 w=1e-05 l=2e-06 as=4.8e-12 ad=4.8e-12 ps=2.096e-05 pd=2.096e-05 m=1 
X1197/X1/X0/X0 13 13 13 13 VDDA GNDA NE3I_6 w=1e-05 l=2e-06 as=4.8e-12 ad=4.8e-12 ps=2.096e-05 pd=2.096e-05 m=1 
X1197/X1/X1/X0 13 21 6 13 VDDA GNDA NE3I_6 w=1e-05 l=2e-06 as=4.8e-12 ad=4.8e-12 ps=2.096e-05 pd=2.096e-05 m=1 
X1198/X0/X0/X0 13 21 6 13 VDDA GNDA NE3I_6 w=1e-05 l=2e-06 as=4.8e-12 ad=4.8e-12 ps=2.096e-05 pd=2.096e-05 m=1 
X1198/X0/X1/X0 13 VREF 7 13 VDDA GNDA NE3I_6 w=1e-05 l=2e-06 as=4.8e-12 ad=4.8e-12 ps=2.096e-05 pd=2.096e-05 m=1 
X1198/X1/X0/X0 13 VREF 7 13 VDDA GNDA NE3I_6 w=1e-05 l=2e-06 as=4.8e-12 ad=4.8e-12 ps=2.096e-05 pd=2.096e-05 m=1 
X1198/X1/X1/X0 13 21 6 13 VDDA GNDA NE3I_6 w=1e-05 l=2e-06 as=4.8e-12 ad=4.8e-12 ps=2.096e-05 pd=2.096e-05 m=1 
X1199/X0/X0/X0 13 21 6 13 VDDA GNDA NE3I_6 w=1e-05 l=2e-06 as=4.8e-12 ad=4.8e-12 ps=2.096e-05 pd=2.096e-05 m=1 
X1199/X0/X1/X0 13 VREF 7 13 VDDA GNDA NE3I_6 w=1e-05 l=2e-06 as=4.8e-12 ad=4.8e-12 ps=2.096e-05 pd=2.096e-05 m=1 
X1199/X1/X0/X0 13 VREF 7 13 VDDA GNDA NE3I_6 w=1e-05 l=2e-06 as=4.8e-12 ad=4.8e-12 ps=2.096e-05 pd=2.096e-05 m=1 
X1199/X1/X1/X0 13 21 6 13 VDDA GNDA NE3I_6 w=1e-05 l=2e-06 as=4.8e-12 ad=4.8e-12 ps=2.096e-05 pd=2.096e-05 m=1 
X1200/X0/X0/X0 13 21 6 13 VDDA GNDA NE3I_6 w=1e-05 l=2e-06 as=4.8e-12 ad=4.8e-12 ps=2.096e-05 pd=2.096e-05 m=1 
X1200/X0/X1/X0 13 VREF 7 13 VDDA GNDA NE3I_6 w=1e-05 l=2e-06 as=4.8e-12 ad=4.8e-12 ps=2.096e-05 pd=2.096e-05 m=1 
X1200/X1/X0/X0 13 VREF 7 13 VDDA GNDA NE3I_6 w=1e-05 l=2e-06 as=4.8e-12 ad=4.8e-12 ps=2.096e-05 pd=2.096e-05 m=1 
X1200/X1/X1/X0 13 21 6 13 VDDA GNDA NE3I_6 w=1e-05 l=2e-06 as=4.8e-12 ad=4.8e-12 ps=2.096e-05 pd=2.096e-05 m=1 
X1201/X0/X0/X0 13 21 6 13 VDDA GNDA NE3I_6 w=1e-05 l=2e-06 as=4.8e-12 ad=4.8e-12 ps=2.096e-05 pd=2.096e-05 m=1 
X1201/X0/X1/X0 13 VREF 7 13 VDDA GNDA NE3I_6 w=1e-05 l=2e-06 as=4.8e-12 ad=4.8e-12 ps=2.096e-05 pd=2.096e-05 m=1 
X1201/X1/X0/X0 13 VREF 7 13 VDDA GNDA NE3I_6 w=1e-05 l=2e-06 as=4.8e-12 ad=4.8e-12 ps=2.096e-05 pd=2.096e-05 m=1 
X1201/X1/X1/X0 13 21 6 13 VDDA GNDA NE3I_6 w=1e-05 l=2e-06 as=4.8e-12 ad=4.8e-12 ps=2.096e-05 pd=2.096e-05 m=1 
X1202/X0/X0/X0 13 21 6 13 VDDA GNDA NE3I_6 w=1e-05 l=2e-06 as=4.8e-12 ad=4.8e-12 ps=2.096e-05 pd=2.096e-05 m=1 
X1202/X0/X1/X0 13 VREF 7 13 VDDA GNDA NE3I_6 w=1e-05 l=2e-06 as=4.8e-12 ad=4.8e-12 ps=2.096e-05 pd=2.096e-05 m=1 
X1202/X1/X0/X0 13 VREF 7 13 VDDA GNDA NE3I_6 w=1e-05 l=2e-06 as=4.8e-12 ad=4.8e-12 ps=2.096e-05 pd=2.096e-05 m=1 
X1202/X1/X1/X0 13 21 6 13 VDDA GNDA NE3I_6 w=1e-05 l=2e-06 as=4.8e-12 ad=4.8e-12 ps=2.096e-05 pd=2.096e-05 m=1 
X1203/X0/X0/X0 13 21 6 13 VDDA GNDA NE3I_6 w=1e-05 l=2e-06 as=4.8e-12 ad=4.8e-12 ps=2.096e-05 pd=2.096e-05 m=1 
X1203/X0/X1/X0 13 VREF 7 13 VDDA GNDA NE3I_6 w=1e-05 l=2e-06 as=4.8e-12 ad=4.8e-12 ps=2.096e-05 pd=2.096e-05 m=1 
X1203/X1/X0/X0 13 VREF 7 13 VDDA GNDA NE3I_6 w=1e-05 l=2e-06 as=4.8e-12 ad=4.8e-12 ps=2.096e-05 pd=2.096e-05 m=1 
X1203/X1/X1/X0 13 21 6 13 VDDA GNDA NE3I_6 w=1e-05 l=2e-06 as=4.8e-12 ad=4.8e-12 ps=2.096e-05 pd=2.096e-05 m=1 
X1204/X0/X0/X0 13 21 6 13 VDDA GNDA NE3I_6 w=1e-05 l=2e-06 as=4.8e-12 ad=4.8e-12 ps=2.096e-05 pd=2.096e-05 m=1 
X1204/X0/X1/X0 13 VREF 7 13 VDDA GNDA NE3I_6 w=1e-05 l=2e-06 as=4.8e-12 ad=4.8e-12 ps=2.096e-05 pd=2.096e-05 m=1 
X1204/X1/X0/X0 13 VREF 7 13 VDDA GNDA NE3I_6 w=1e-05 l=2e-06 as=4.8e-12 ad=4.8e-12 ps=2.096e-05 pd=2.096e-05 m=1 
X1204/X1/X1/X0 13 21 6 13 VDDA GNDA NE3I_6 w=1e-05 l=2e-06 as=4.8e-12 ad=4.8e-12 ps=2.096e-05 pd=2.096e-05 m=1 
X1205/X0/X0/X0 13 21 6 13 VDDA GNDA NE3I_6 w=1e-05 l=2e-06 as=4.8e-12 ad=4.8e-12 ps=2.096e-05 pd=2.096e-05 m=1 
X1205/X0/X1/X0 13 13 13 13 VDDA GNDA NE3I_6 w=1e-05 l=2e-06 as=4.8e-12 ad=4.8e-12 ps=2.096e-05 pd=2.096e-05 m=1 
X1205/X1/X0/X0 13 VREF 7 13 VDDA GNDA NE3I_6 w=1e-05 l=2e-06 as=4.8e-12 ad=4.8e-12 ps=2.096e-05 pd=2.096e-05 m=1 
X1205/X1/X1/X0 13 13 13 13 VDDA GNDA NE3I_6 w=1e-05 l=2e-06 as=4.8e-12 ad=4.8e-12 ps=2.096e-05 pd=2.096e-05 m=1 
MX1206/X0/X0/M0 VDDA VDDA VDDA VDDA PE3 L=1e-05 W=1e-05 AD=4.8e-12 AS=4.8e-12 PD=2.096e-05 PS=2.096e-05 m=1 
MX1206/X0/X1/M0 7 6 VDDA VDDA PE3 L=1e-05 W=1e-05 AD=4.8e-12 AS=4.8e-12 PD=2.096e-05 PS=2.096e-05 m=1 
MX1206/X1/X0/M0 6 6 VDDA VDDA PE3 L=1e-05 W=1e-05 AD=4.8e-12 AS=4.8e-12 PD=2.096e-05 PS=2.096e-05 m=1 
MX1206/X1/X1/M0 7 6 VDDA VDDA PE3 L=1e-05 W=1e-05 AD=4.8e-12 AS=4.8e-12 PD=2.096e-05 PS=2.096e-05 m=1 
MX1207/X0/X0/M0 6 6 VDDA VDDA PE3 L=1e-05 W=1e-05 AD=4.8e-12 AS=4.8e-12 PD=2.096e-05 PS=2.096e-05 m=1 
MX1207/X0/X1/M0 7 6 VDDA VDDA PE3 L=1e-05 W=1e-05 AD=4.8e-12 AS=4.8e-12 PD=2.096e-05 PS=2.096e-05 m=1 
MX1207/X1/X0/M0 6 6 VDDA VDDA PE3 L=1e-05 W=1e-05 AD=4.8e-12 AS=4.8e-12 PD=2.096e-05 PS=2.096e-05 m=1 
MX1207/X1/X1/M0 7 6 VDDA VDDA PE3 L=1e-05 W=1e-05 AD=4.8e-12 AS=4.8e-12 PD=2.096e-05 PS=2.096e-05 m=1 
MX1208/X0/X0/M0 VDDA VDDA VDDA VDDA PE3 L=1e-05 W=1e-05 AD=4.8e-12 AS=4.8e-12 PD=2.096e-05 PS=2.096e-05 m=1 
MX1208/X0/X1/M0 14 7 VDDA VDDA PE3 L=1e-05 W=1e-05 AD=4.8e-12 AS=4.8e-12 PD=2.096e-05 PS=2.096e-05 m=1 
MX1208/X1/X0/M0 15 7 VDDA VDDA PE3 L=1e-05 W=1e-05 AD=4.8e-12 AS=4.8e-12 PD=2.096e-05 PS=2.096e-05 m=1 
MX1208/X1/X1/M0 15 7 VDDA VDDA PE3 L=1e-05 W=1e-05 AD=4.8e-12 AS=4.8e-12 PD=2.096e-05 PS=2.096e-05 m=1 
MX1209/X0/X0/M0 VDDA VDDA VDDA VDDA PE3 L=1e-05 W=1e-05 AD=4.8e-12 AS=4.8e-12 PD=2.096e-05 PS=2.096e-05 m=1 
MX1209/X0/X1/M0 14 7 VDDA VDDA PE3 L=1e-05 W=1e-05 AD=4.8e-12 AS=4.8e-12 PD=2.096e-05 PS=2.096e-05 m=1 
MX1209/X1/X0/M0 15 7 VDDA VDDA PE3 L=1e-05 W=1e-05 AD=4.8e-12 AS=4.8e-12 PD=2.096e-05 PS=2.096e-05 m=1 
MX1209/X1/X1/M0 16 7 VDDA VDDA PE3 L=1e-05 W=1e-05 AD=4.8e-12 AS=4.8e-12 PD=2.096e-05 PS=2.096e-05 m=1 
MX1210/X0/X0/M0 VDDA VDDA VDDA VDDA PE3 L=1e-05 W=1e-05 AD=4.8e-12 AS=4.8e-12 PD=2.096e-05 PS=2.096e-05 m=1 
MX1210/X0/X1/M0 14 7 VDDA VDDA PE3 L=1e-05 W=1e-05 AD=4.8e-12 AS=4.8e-12 PD=2.096e-05 PS=2.096e-05 m=1 
MX1210/X1/X0/M0 15 7 VDDA VDDA PE3 L=1e-05 W=1e-05 AD=4.8e-12 AS=4.8e-12 PD=2.096e-05 PS=2.096e-05 m=1 
MX1210/X1/X1/M0 16 7 VDDA VDDA PE3 L=1e-05 W=1e-05 AD=4.8e-12 AS=4.8e-12 PD=2.096e-05 PS=2.096e-05 m=1 
MX1211/X0/X0/M0 VDDA VDDA VDDA VDDA PE3 L=1e-05 W=1e-05 AD=4.8e-12 AS=4.8e-12 PD=2.096e-05 PS=2.096e-05 m=1 
MX1211/X0/X1/M0 14 7 VDDA VDDA PE3 L=1e-05 W=1e-05 AD=4.8e-12 AS=4.8e-12 PD=2.096e-05 PS=2.096e-05 m=1 
MX1211/X1/X0/M0 15 7 VDDA VDDA PE3 L=1e-05 W=1e-05 AD=4.8e-12 AS=4.8e-12 PD=2.096e-05 PS=2.096e-05 m=1 
MX1211/X1/X1/M0 16 7 VDDA VDDA PE3 L=1e-05 W=1e-05 AD=4.8e-12 AS=4.8e-12 PD=2.096e-05 PS=2.096e-05 m=1 
MX1212/X0/X0/M0 VDDA VDDA VDDA VDDA PE3 L=1e-05 W=1e-05 AD=4.8e-12 AS=4.8e-12 PD=2.096e-05 PS=2.096e-05 m=1 
MX1212/X0/X1/M0 14 7 VDDA VDDA PE3 L=1e-05 W=1e-05 AD=4.8e-12 AS=4.8e-12 PD=2.096e-05 PS=2.096e-05 m=1 
MX1212/X1/X0/M0 15 7 VDDA VDDA PE3 L=1e-05 W=1e-05 AD=4.8e-12 AS=4.8e-12 PD=2.096e-05 PS=2.096e-05 m=1 
MX1212/X1/X1/M0 16 7 VDDA VDDA PE3 L=1e-05 W=1e-05 AD=4.8e-12 AS=4.8e-12 PD=2.096e-05 PS=2.096e-05 m=1 
MX1213/X0/X0/M0 VDDA VDDA VDDA VDDA PE3 L=1e-05 W=1e-05 AD=4.8e-12 AS=4.8e-12 PD=2.096e-05 PS=2.096e-05 m=1 
MX1213/X0/X1/M0 14 7 VDDA VDDA PE3 L=1e-05 W=1e-05 AD=4.8e-12 AS=4.8e-12 PD=2.096e-05 PS=2.096e-05 m=1 
MX1213/X1/X0/M0 14 7 VDDA VDDA PE3 L=1e-05 W=1e-05 AD=4.8e-12 AS=4.8e-12 PD=2.096e-05 PS=2.096e-05 m=1 
MX1213/X1/X1/M0 14 7 VDDA VDDA PE3 L=1e-05 W=1e-05 AD=4.8e-12 AS=4.8e-12 PD=2.096e-05 PS=2.096e-05 m=1 
MX1214/X0/X0/M0 15 7 VDDA VDDA PE3 L=1e-05 W=1e-05 AD=4.8e-12 AS=4.8e-12 PD=2.096e-05 PS=2.096e-05 m=1 
MX1214/X0/X1/M0 15 7 VDDA VDDA PE3 L=1e-05 W=1e-05 AD=4.8e-12 AS=4.8e-12 PD=2.096e-05 PS=2.096e-05 m=1 
MX1214/X1/X0/M0 18 7 VDDA VDDA PE3 L=1e-05 W=1e-05 AD=4.8e-12 AS=4.8e-12 PD=2.096e-05 PS=2.096e-05 m=1 
MX1214/X1/X1/M0 14 7 VDDA VDDA PE3 L=1e-05 W=1e-05 AD=4.8e-12 AS=4.8e-12 PD=2.096e-05 PS=2.096e-05 m=1 
MX1215/X0/X0/M0 18 7 VDDA VDDA PE3 L=1e-05 W=1e-05 AD=4.8e-12 AS=4.8e-12 PD=2.096e-05 PS=2.096e-05 m=1 
MX1215/X0/X1/M0 20 7 VDDA VDDA PE3 L=1e-05 W=1e-05 AD=4.8e-12 AS=4.8e-12 PD=2.096e-05 PS=2.096e-05 m=1 
MX1215/X1/X0/M0 20 7 VDDA VDDA PE3 L=1e-05 W=1e-05 AD=4.8e-12 AS=4.8e-12 PD=2.096e-05 PS=2.096e-05 m=1 
MX1215/X1/X1/M0 18 7 VDDA VDDA PE3 L=1e-05 W=1e-05 AD=4.8e-12 AS=4.8e-12 PD=2.096e-05 PS=2.096e-05 m=1 
MX1216/X0/X0/M0 17 7 VDDA VDDA PE3 L=1e-05 W=1e-05 AD=4.8e-12 AS=4.8e-12 PD=2.096e-05 PS=2.096e-05 m=1 