* +++++++++++++++++++++++++++++++++++++++++++++++++++++++++ *
* CDL Netlist:                                              *
*                                                           *
* Cell Name  : current_source_gm_10_en_r                    *
* Netlisted  : Tue Aug 13 03:37:13 2024                     *
* PVS Version: 23.10-p043 Mon Oct 2 18:09:08 PDT 2023      *
* +++++++++++++++++++++++++++++++++++++++++++++++++++++++++ *
*.LDD
*.DEVTMPLT 0 LDDN(nedia) nedia2_d dnwtrm(D) p1trm(G) ndiff(S) bulk(B)
*.DEVTMPLT 1 MN(ne3) nem ndiff(D) p1trm(G) ndiff(S) bulk(B)
*.DEVTMPLT 2 MP(pe3) pem pdiff(D) p1trm(G) pdiff(S) nwtrm(B)
*.DEVTMPLT 3 MOSVC3() mosvcm p1trm(G) nwtrm(NW) bulk(SB)
*.DEVTMPLT 4 R(s_res) s_res bulk(POS) bulk(NEG)
*.DEVTMPLT 5 D(p_dnw) p_dnw bulk(POS) nwtrm(NEG)
*.DEVTMPLT 6 D(p_dnw3) p_dnwm bulk(POS) nwtrm(NEG)
*.DEVTMPLT 7 R(rpp1k1_3) rpp1k1_s p1trm(POS) p1trm(NEG) bulk(SUB)
*.DEVTMPLT 8 R(rpp1k1_3) rpp1k1_n p1trm(POS) p1trm(NEG) nwtrm(SUB)
*.DEVTMPLT 9 C(cmm5t) cmim capm(POS) m4trm(NEG)

* +++++++++++++++++++++++++++++++++++++++++++++++++++++++++ *
* Sub cell: VIA1_C_CDNS_723534627840                        *
* +++++++++++++++++++++++++++++++++++++++++++++++++++++++++ *
.subckt VIA1_C_CDNS_723534627840 1
** N=1 EP=1 FDC=0
.ends VIA1_C_CDNS_723534627840

* +++++++++++++++++++++++++++++++++++++++++++++++++++++++++ *
* Sub cell: VIA1_C_CDNS_723534627841                        *
* +++++++++++++++++++++++++++++++++++++++++++++++++++++++++ *
.subckt VIA1_C_CDNS_723534627841 1
** N=1 EP=1 FDC=0
.ends VIA1_C_CDNS_723534627841

* +++++++++++++++++++++++++++++++++++++++++++++++++++++++++ *
* Sub cell: VIA1_C_CDNS_723534627842                        *
* +++++++++++++++++++++++++++++++++++++++++++++++++++++++++ *
.subckt VIA1_C_CDNS_723534627842 1
** N=1 EP=1 FDC=0
.ends VIA1_C_CDNS_723534627842

* +++++++++++++++++++++++++++++++++++++++++++++++++++++++++ *
* Sub cell: VIA2_C_CDNS_723534627843                        *
* +++++++++++++++++++++++++++++++++++++++++++++++++++++++++ *
.subckt VIA2_C_CDNS_723534627843 1
** N=1 EP=1 FDC=0
.ends VIA2_C_CDNS_723534627843

* +++++++++++++++++++++++++++++++++++++++++++++++++++++++++ *
* Sub cell: VIA2_C_CDNS_723534627844                        *
* +++++++++++++++++++++++++++++++++++++++++++++++++++++++++ *
.subckt VIA2_C_CDNS_723534627844 1
** N=1 EP=1 FDC=0
.ends VIA2_C_CDNS_723534627844

* +++++++++++++++++++++++++++++++++++++++++++++++++++++++++ *
* Sub cell: VIA2_C_CDNS_723534627845                        *
* +++++++++++++++++++++++++++++++++++++++++++++++++++++++++ *
.subckt VIA2_C_CDNS_723534627845 1
** N=1 EP=1 FDC=0
.ends VIA2_C_CDNS_723534627845

* +++++++++++++++++++++++++++++++++++++++++++++++++++++++++ *
* Sub cell: VIA1_C_CDNS_723534627846                        *
* +++++++++++++++++++++++++++++++++++++++++++++++++++++++++ *
.subckt VIA1_C_CDNS_723534627846 1
** N=1 EP=1 FDC=0
.ends VIA1_C_CDNS_723534627846

* +++++++++++++++++++++++++++++++++++++++++++++++++++++++++ *
* Sub cell: VIA1_C_CDNS_723534627847                        *
* +++++++++++++++++++++++++++++++++++++++++++++++++++++++++ *
.subckt VIA1_C_CDNS_723534627847 1
** N=1 EP=1 FDC=0
.ends VIA1_C_CDNS_723534627847

* +++++++++++++++++++++++++++++++++++++++++++++++++++++++++ *
* Sub cell: VIA1_C_CDNS_723534627848                        *
* +++++++++++++++++++++++++++++++++++++++++++++++++++++++++ *
.subckt VIA1_C_CDNS_723534627848 1
** N=1 EP=1 FDC=0
.ends VIA1_C_CDNS_723534627848

* +++++++++++++++++++++++++++++++++++++++++++++++++++++++++ *
* Sub cell: VIA1_C_CDNS_723534627849                        *
* +++++++++++++++++++++++++++++++++++++++++++++++++++++++++ *
.subckt VIA1_C_CDNS_723534627849 1
** N=1 EP=1 FDC=0
.ends VIA1_C_CDNS_723534627849

* +++++++++++++++++++++++++++++++++++++++++++++++++++++++++ *
* Sub cell: VIA1_C_CDNS_7235346278410                       *
* +++++++++++++++++++++++++++++++++++++++++++++++++++++++++ *
.subckt VIA1_C_CDNS_7235346278410 1
** N=1 EP=1 FDC=0
.ends VIA1_C_CDNS_7235346278410

* +++++++++++++++++++++++++++++++++++++++++++++++++++++++++ *
* Sub cell: ND_C_CDNS_7235346278411                         *
* +++++++++++++++++++++++++++++++++++++++++++++++++++++++++ *
.subckt ND_C_CDNS_7235346278411 1 2
** N=2 EP=2 FDC=0
.ends ND_C_CDNS_7235346278411

* +++++++++++++++++++++++++++++++++++++++++++++++++++++++++ *
* Sub cell: VIA2_C_CDNS_7235346278412                       *
* +++++++++++++++++++++++++++++++++++++++++++++++++++++++++ *
.subckt VIA2_C_CDNS_7235346278412 1
** N=1 EP=1 FDC=0
.ends VIA2_C_CDNS_7235346278412

* +++++++++++++++++++++++++++++++++++++++++++++++++++++++++ *
* Sub cell: VIA1_C_CDNS_7235346278413                       *
* +++++++++++++++++++++++++++++++++++++++++++++++++++++++++ *
.subckt VIA1_C_CDNS_7235346278413 1
** N=1 EP=1 FDC=0
.ends VIA1_C_CDNS_7235346278413

* +++++++++++++++++++++++++++++++++++++++++++++++++++++++++ *
* Sub cell: VIA1_C_CDNS_7235346278414                       *
* +++++++++++++++++++++++++++++++++++++++++++++++++++++++++ *
.subckt VIA1_C_CDNS_7235346278414 1
** N=1 EP=1 FDC=0
.ends VIA1_C_CDNS_7235346278414

* +++++++++++++++++++++++++++++++++++++++++++++++++++++++++ *
* Sub cell: VIA1_C_CDNS_7235346278416                       *
* +++++++++++++++++++++++++++++++++++++++++++++++++++++++++ *
.subckt VIA1_C_CDNS_7235346278416 1
** N=1 EP=1 FDC=0
.ends VIA1_C_CDNS_7235346278416

* +++++++++++++++++++++++++++++++++++++++++++++++++++++++++ *
* Sub cell: VIA2_C_CDNS_7235346278417                       *
* +++++++++++++++++++++++++++++++++++++++++++++++++++++++++ *
.subckt VIA2_C_CDNS_7235346278417 1
** N=1 EP=1 FDC=0
.ends VIA2_C_CDNS_7235346278417

* +++++++++++++++++++++++++++++++++++++++++++++++++++++++++ *
* Sub cell: VIA1_C_CDNS_7235346278418                       *
* +++++++++++++++++++++++++++++++++++++++++++++++++++++++++ *
.subckt VIA1_C_CDNS_7235346278418 1
** N=1 EP=1 FDC=0
.ends VIA1_C_CDNS_7235346278418

* +++++++++++++++++++++++++++++++++++++++++++++++++++++++++ *
* Sub cell: VIA1_C_CDNS_7235346278419                       *
* +++++++++++++++++++++++++++++++++++++++++++++++++++++++++ *
.subckt VIA1_C_CDNS_7235346278419 1
** N=1 EP=1 FDC=0
.ends VIA1_C_CDNS_7235346278419

* +++++++++++++++++++++++++++++++++++++++++++++++++++++++++ *
* Sub cell: VIA2_C_CDNS_7235346278420                       *
* +++++++++++++++++++++++++++++++++++++++++++++++++++++++++ *
.subckt VIA2_C_CDNS_7235346278420 1
** N=1 EP=1 FDC=0
.ends VIA2_C_CDNS_7235346278420

* +++++++++++++++++++++++++++++++++++++++++++++++++++++++++ *
* Sub cell: VIA2_C_CDNS_7235346278422                       *
* +++++++++++++++++++++++++++++++++++++++++++++++++++++++++ *
.subckt VIA2_C_CDNS_7235346278422 1 2
** N=2 EP=2 FDC=0
.ends VIA2_C_CDNS_7235346278422

* +++++++++++++++++++++++++++++++++++++++++++++++++++++++++ *
* Sub cell: VIA1_C_CDNS_7235346278423                       *
* +++++++++++++++++++++++++++++++++++++++++++++++++++++++++ *
.subckt VIA1_C_CDNS_7235346278423 1 2
** N=2 EP=2 FDC=0
.ends VIA1_C_CDNS_7235346278423

* +++++++++++++++++++++++++++++++++++++++++++++++++++++++++ *
* Sub cell: VIA3_C_CDNS_7235346278432                       *
* +++++++++++++++++++++++++++++++++++++++++++++++++++++++++ *
.subckt VIA3_C_CDNS_7235346278432 1
** N=1 EP=1 FDC=0
.ends VIA3_C_CDNS_7235346278432

* +++++++++++++++++++++++++++++++++++++++++++++++++++++++++ *
* Sub cell: VIA2_C_CDNS_7235346278438                       *
* +++++++++++++++++++++++++++++++++++++++++++++++++++++++++ *
.subckt VIA2_C_CDNS_7235346278438 1
** N=1 EP=1 FDC=0
.ends VIA2_C_CDNS_7235346278438

* +++++++++++++++++++++++++++++++++++++++++++++++++++++++++ *
* Sub cell: VIATP_C_CDNS_7235346278440                      *
* +++++++++++++++++++++++++++++++++++++++++++++++++++++++++ *
.subckt VIATP_C_CDNS_7235346278440 1
** N=1 EP=1 FDC=0
.ends VIATP_C_CDNS_7235346278440

* +++++++++++++++++++++++++++++++++++++++++++++++++++++++++ *
* Sub cell: VIATP_C_CDNS_7235346278444                      *
* +++++++++++++++++++++++++++++++++++++++++++++++++++++++++ *
.subckt VIATP_C_CDNS_7235346278444 1
** N=1 EP=1 FDC=0
.ends VIATP_C_CDNS_7235346278444

* +++++++++++++++++++++++++++++++++++++++++++++++++++++++++ *
* Sub cell: VIA2_C_CDNS_7235346278453                       *
* +++++++++++++++++++++++++++++++++++++++++++++++++++++++++ *
.subckt VIA2_C_CDNS_7235346278453 1
** N=1 EP=1 FDC=0
.ends VIA2_C_CDNS_7235346278453

* +++++++++++++++++++++++++++++++++++++++++++++++++++++++++ *
* Sub cell: ne3_CDNS_723534627840                           *
* +++++++++++++++++++++++++++++++++++++++++++++++++++++++++ *
.subckt ne3_CDNS_723534627840 1 2 3
** N=3 EP=3 FDC=4
M0 3 2 1 1 ne3 L=5e-07 W=5e-06 AD=1.35e-12 AS=2.4e-12 PD=5.54e-06 PS=1.096e-05 $X=0 $Y=0 $dt=1
M1 1 2 3 1 ne3 L=5e-07 W=5e-06 AD=1.35e-12 AS=1.35e-12 PD=5.54e-06 PS=5.54e-06 $X=1040 $Y=0 $dt=1
M2 3 2 1 1 ne3 L=5e-07 W=5e-06 AD=1.35e-12 AS=1.35e-12 PD=5.54e-06 PS=5.54e-06 $X=2080 $Y=0 $dt=1
M3 1 2 3 1 ne3 L=5e-07 W=5e-06 AD=2.4e-12 AS=1.35e-12 PD=1.096e-05 PS=5.54e-06 $X=3120 $Y=0 $dt=1
.ends ne3_CDNS_723534627840

* +++++++++++++++++++++++++++++++++++++++++++++++++++++++++ *
* Sub cell: nedia_CDNS_723534627841                         *
* +++++++++++++++++++++++++++++++++++++++++++++++++++++++++ *
.subckt nedia_CDNS_723534627841 1 2 3 4
** N=4 EP=4 FDC=1
X0 2 4 3 1 LDDN w=5e-05 l=1.25e-06 adio=1.08602e-09 pdio=0.00013535 extlay=1 $[nedia] $X=-680 $Y=-4850 $dt=0
.ends nedia_CDNS_723534627841

* +++++++++++++++++++++++++++++++++++++++++++++++++++++++++ *
* Sub cell: ne3_CDNS_723534627842                           *
* +++++++++++++++++++++++++++++++++++++++++++++++++++++++++ *
.subckt ne3_CDNS_723534627842 1 2 3
** N=3 EP=3 FDC=4
M0 3 2 1 1 ne3 L=3.5e-07 W=5e-06 AD=1.35e-12 AS=2.4e-12 PD=5.54e-06 PS=1.096e-05 $X=0 $Y=0 $dt=1
M1 1 2 3 1 ne3 L=3.5e-07 W=5e-06 AD=1.35e-12 AS=1.35e-12 PD=5.54e-06 PS=5.54e-06 $X=890 $Y=0 $dt=1
M2 3 2 1 1 ne3 L=3.5e-07 W=5e-06 AD=1.35e-12 AS=1.35e-12 PD=5.54e-06 PS=5.54e-06 $X=1780 $Y=0 $dt=1
M3 1 2 3 1 ne3 L=3.5e-07 W=5e-06 AD=2.4e-12 AS=1.35e-12 PD=1.096e-05 PS=5.54e-06 $X=2670 $Y=0 $dt=1
.ends ne3_CDNS_723534627842

* +++++++++++++++++++++++++++++++++++++++++++++++++++++++++ *
* Sub cell: rpp1k1_3_CDNS_723534627843                      *
* +++++++++++++++++++++++++++++++++++++++++++++++++++++++++ *
.subckt rpp1k1_3_CDNS_723534627843 1 2 3
** N=3 EP=3 FDC=1
R0 2 1 L=0.00010265 W=4e-06 $[rpp1k1_3] $SUB=3 $X=0 $Y=0 $dt=7
.ends rpp1k1_3_CDNS_723534627843

* +++++++++++++++++++++++++++++++++++++++++++++++++++++++++ *
* Sub cell: nedia_CDNS_723534627844                         *
* +++++++++++++++++++++++++++++++++++++++++++++++++++++++++ *
.subckt nedia_CDNS_723534627844 1 2 3 4
** N=4 EP=4 FDC=8
X0 2 4 3 1 LDDN w=0.0001 l=1.25e-06 adio=1.01941e-09 pdio=4.39938e-05 extlay=1 $[nedia] $X=-680 $Y=-4850 $dt=0
X1 2 4 3 1 LDDN w=0.0001 l=1.25e-06 adio=1.01941e-09 pdio=4.39938e-05 extlay=1 $[nedia] $X=11220 $Y=-4850 $dt=0
X2 2 4 3 1 LDDN w=0.0001 l=1.25e-06 adio=1.01941e-09 pdio=4.39938e-05 extlay=1 $[nedia] $X=23120 $Y=-4850 $dt=0
X3 2 4 3 1 LDDN w=0.0001 l=1.25e-06 adio=1.01941e-09 pdio=4.39938e-05 extlay=1 $[nedia] $X=35020 $Y=-4850 $dt=0
X4 2 4 3 1 LDDN w=0.0001 l=1.25e-06 adio=1.01941e-09 pdio=4.39938e-05 extlay=1 $[nedia] $X=46920 $Y=-4850 $dt=0
X5 2 4 3 1 LDDN w=0.0001 l=1.25e-06 adio=1.01941e-09 pdio=4.39938e-05 extlay=1 $[nedia] $X=58820 $Y=-4850 $dt=0
X6 2 4 3 1 LDDN w=0.0001 l=1.25e-06 adio=1.01941e-09 pdio=4.39938e-05 extlay=1 $[nedia] $X=70720 $Y=-4850 $dt=0
X7 2 4 3 1 LDDN w=0.0001 l=1.25e-06 adio=1.01941e-09 pdio=4.39938e-05 extlay=1 $[nedia] $X=82620 $Y=-4850 $dt=0
.ends nedia_CDNS_723534627844

* +++++++++++++++++++++++++++++++++++++++++++++++++++++++++ *
* Sub cell: ne3_CDNS_723534627845                           *
* +++++++++++++++++++++++++++++++++++++++++++++++++++++++++ *
.subckt ne3_CDNS_723534627845 1 2 3 4
** N=4 EP=4 FDC=2
M0 3 2 1 4 ne3 L=1e-05 W=1e-05 AD=2.7e-12 AS=4.8e-12 PD=1.054e-05 PS=2.096e-05 $X=0 $Y=0 $dt=1
M1 1 2 3 4 ne3 L=1e-05 W=1e-05 AD=4.8e-12 AS=2.7e-12 PD=2.096e-05 PS=1.054e-05 $X=10540 $Y=0 $dt=1
.ends ne3_CDNS_723534627845

* +++++++++++++++++++++++++++++++++++++++++++++++++++++++++ *
* Sub cell: pe3_CDNS_723534627846                           *
* +++++++++++++++++++++++++++++++++++++++++++++++++++++++++ *
.subckt pe3_CDNS_723534627846 1 2 3 4
*.DEVICECLIMB
** N=4 EP=4 FDC=1
M0 3 2 1 1 pe3 L=1e-06 W=1e-05 AD=4.8e-12 AS=4.8e-12 PD=2.096e-05 PS=2.096e-05 $X=0 $Y=0 $dt=2
.ends pe3_CDNS_723534627846

* +++++++++++++++++++++++++++++++++++++++++++++++++++++++++ *
* Sub cell: pe3_CDNS_723534627847                           *
* +++++++++++++++++++++++++++++++++++++++++++++++++++++++++ *
.subckt pe3_CDNS_723534627847 1 2 3 4
*.DEVICECLIMB
** N=4 EP=4 FDC=2
M0 3 2 1 1 pe3 L=3e-07 W=3e-06 AD=8.1e-13 AS=1.44e-12 PD=3.54e-06 PS=6.96e-06 $X=0 $Y=0 $dt=2
M1 1 2 3 1 pe3 L=3e-07 W=3e-06 AD=1.44e-12 AS=8.1e-13 PD=6.96e-06 PS=3.54e-06 $X=840 $Y=0 $dt=2
.ends pe3_CDNS_723534627847

* +++++++++++++++++++++++++++++++++++++++++++++++++++++++++ *
* Sub cell: rpp1k1_3_CDNS_723534627848                      *
* +++++++++++++++++++++++++++++++++++++++++++++++++++++++++ *
.subckt rpp1k1_3_CDNS_723534627848 1 2 3
** N=3 EP=3 FDC=1
R0 1 2 L=0.00204354 W=2e-06 $[rpp1k1_3] $SUB=3 $X=-2220 $Y=0 $dt=7
.ends rpp1k1_3_CDNS_723534627848

* +++++++++++++++++++++++++++++++++++++++++++++++++++++++++ *
* Sub cell: pe3_CDNS_7235346278411                          *
* +++++++++++++++++++++++++++++++++++++++++++++++++++++++++ *
.subckt pe3_CDNS_7235346278411 1 2 3 4 5
*.DEVICECLIMB
** N=5 EP=5 FDC=1
M0 3 2 1 4 pe3 L=5e-06 W=1e-05 AD=4.8e-12 AS=4.8e-12 PD=2.096e-05 PS=2.096e-05 $X=0 $Y=0 $dt=2
.ends pe3_CDNS_7235346278411

* +++++++++++++++++++++++++++++++++++++++++++++++++++++++++ *
* Sub cell: ne3_CDNS_7235346278412                          *
* +++++++++++++++++++++++++++++++++++++++++++++++++++++++++ *
.subckt ne3_CDNS_7235346278412 1 2 3
** N=3 EP=3 FDC=1
M0 3 2 1 1 ne3 L=1e-05 W=1e-05 AD=4.8e-12 AS=4.8e-12 PD=2.096e-05 PS=2.096e-05 $X=0 $Y=0 $dt=1
.ends ne3_CDNS_7235346278412

* +++++++++++++++++++++++++++++++++++++++++++++++++++++++++ *
* Sub cell: ne3_CDNS_7235346278413                          *
* +++++++++++++++++++++++++++++++++++++++++++++++++++++++++ *
.subckt ne3_CDNS_7235346278413 1 2 3
** N=3 EP=3 FDC=1
M0 3 2 1 1 ne3 L=1e-06 W=5e-06 AD=2.4e-12 AS=2.4e-12 PD=1.096e-05 PS=1.096e-05 $X=0 $Y=0 $dt=1
.ends ne3_CDNS_7235346278413

* +++++++++++++++++++++++++++++++++++++++++++++++++++++++++ *
* Sub cell: pe3_CDNS_7235346278414                          *
* +++++++++++++++++++++++++++++++++++++++++++++++++++++++++ *
.subckt pe3_CDNS_7235346278414 1 2 3
*.DEVICECLIMB
** N=3 EP=3 FDC=9
M0 3 2 1 1 pe3 L=5e-06 W=1e-05 AD=2.7e-12 AS=4.8e-12 PD=1.054e-05 PS=2.096e-05 $X=0 $Y=0 $dt=2
M1 1 2 3 1 pe3 L=5e-06 W=1e-05 AD=2.7e-12 AS=2.7e-12 PD=1.054e-05 PS=1.054e-05 $X=5540 $Y=0 $dt=2
M2 3 2 1 1 pe3 L=5e-06 W=1e-05 AD=2.7e-12 AS=2.7e-12 PD=1.054e-05 PS=1.054e-05 $X=11080 $Y=0 $dt=2
M3 1 2 3 1 pe3 L=5e-06 W=1e-05 AD=2.7e-12 AS=2.7e-12 PD=1.054e-05 PS=1.054e-05 $X=16620 $Y=0 $dt=2
M4 3 2 1 1 pe3 L=5e-06 W=1e-05 AD=2.7e-12 AS=2.7e-12 PD=1.054e-05 PS=1.054e-05 $X=22160 $Y=0 $dt=2
M5 1 2 3 1 pe3 L=5e-06 W=1e-05 AD=2.7e-12 AS=2.7e-12 PD=1.054e-05 PS=1.054e-05 $X=27700 $Y=0 $dt=2
M6 3 2 1 1 pe3 L=5e-06 W=1e-05 AD=2.7e-12 AS=2.7e-12 PD=1.054e-05 PS=1.054e-05 $X=33240 $Y=0 $dt=2
M7 1 2 3 1 pe3 L=5e-06 W=1e-05 AD=2.7e-12 AS=2.7e-12 PD=1.054e-05 PS=1.054e-05 $X=38780 $Y=0 $dt=2
M8 3 2 1 1 pe3 L=5e-06 W=1e-05 AD=4.8e-12 AS=2.7e-12 PD=2.096e-05 PS=1.054e-05 $X=44320 $Y=0 $dt=2
.ends pe3_CDNS_7235346278414

* +++++++++++++++++++++++++++++++++++++++++++++++++++++++++ *
* Sub cell: rpp1k1_3_CDNS_7235346278415                     *
* +++++++++++++++++++++++++++++++++++++++++++++++++++++++++ *
.subckt rpp1k1_3_CDNS_7235346278415 1 2 3
** N=3 EP=3 FDC=1
R0 1 2 L=1e-05 W=2e-06 $[rpp1k1_3] $SUB=3 $X=0 $Y=0 $dt=7
.ends rpp1k1_3_CDNS_7235346278415

* +++++++++++++++++++++++++++++++++++++++++++++++++++++++++ *
* Sub cell: rpp1k1_3_CDNS_7235346278416                     *
* +++++++++++++++++++++++++++++++++++++++++++++++++++++++++ *
.subckt rpp1k1_3_CDNS_7235346278416 1 2 3 4
*.DEVICECLIMB
** N=4 EP=4 FDC=1
R0 2 1 L=0.00016435 W=4e-06 $[rpp1k1_3] $SUB=3 $X=-4220 $Y=0 $dt=8
.ends rpp1k1_3_CDNS_7235346278416

* +++++++++++++++++++++++++++++++++++++++++++++++++++++++++ *
* Sub cell: rpp1k1_3_CDNS_7235346278417                     *
* +++++++++++++++++++++++++++++++++++++++++++++++++++++++++ *
.subckt rpp1k1_3_CDNS_7235346278417 1 2 3
** N=3 EP=3 FDC=1
R0 2 1 L=0.00041122 W=4e-06 $[rpp1k1_3] $SUB=3 $X=-4220 $Y=0 $dt=7
.ends rpp1k1_3_CDNS_7235346278417

* +++++++++++++++++++++++++++++++++++++++++++++++++++++++++ *
* Sub cell: ne3_CDNS_7235346278418                          *
* +++++++++++++++++++++++++++++++++++++++++++++++++++++++++ *
.subckt ne3_CDNS_7235346278418 1 2 3
** N=3 EP=3 FDC=1
M0 3 2 1 1 ne3 L=3.5e-07 W=2e-06 AD=9.6e-13 AS=9.6e-13 PD=4.96e-06 PS=4.96e-06 $X=0 $Y=0 $dt=1
.ends ne3_CDNS_7235346278418

* +++++++++++++++++++++++++++++++++++++++++++++++++++++++++ *
* Sub cell: VIATP_C_CDNS_7235346278443                      *
* +++++++++++++++++++++++++++++++++++++++++++++++++++++++++ *
.subckt VIATP_C_CDNS_7235346278443 1
** N=1 EP=1 FDC=0
.ends VIATP_C_CDNS_7235346278443

* +++++++++++++++++++++++++++++++++++++++++++++++++++++++++ *
* Sub cell: MASCO__X1                                       *
* +++++++++++++++++++++++++++++++++++++++++++++++++++++++++ *
.subckt MASCO__X1 1
** N=1 EP=1 FDC=0
X0 1 VIATP_C_CDNS_7235346278443 $T=660 500 0 0 $X=0 $Y=0
X1 1 VIATP_C_CDNS_7235346278443 $T=660 1500 0 0 $X=0 $Y=1000
X2 1 VIATP_C_CDNS_7235346278443 $T=660 2500 0 0 $X=0 $Y=2000
X3 1 VIATP_C_CDNS_7235346278443 $T=660 3500 0 0 $X=0 $Y=3000
X4 1 VIATP_C_CDNS_7235346278443 $T=660 4500 0 0 $X=0 $Y=4000
.ends MASCO__X1

* +++++++++++++++++++++++++++++++++++++++++++++++++++++++++ *
* Sub cell: VIATP_C_CDNS_7235346278442                      *
* +++++++++++++++++++++++++++++++++++++++++++++++++++++++++ *
.subckt VIATP_C_CDNS_7235346278442 1
** N=1 EP=1 FDC=0
.ends VIATP_C_CDNS_7235346278442

* +++++++++++++++++++++++++++++++++++++++++++++++++++++++++ *
* Sub cell: MASCO__X2                                       *
* +++++++++++++++++++++++++++++++++++++++++++++++++++++++++ *
.subckt MASCO__X2 1
** N=1 EP=1 FDC=0
X0 1 VIATP_C_CDNS_7235346278442 $T=790 500 0 0 $X=0 $Y=0
X1 1 VIATP_C_CDNS_7235346278442 $T=790 1500 0 0 $X=0 $Y=1000
X2 1 VIATP_C_CDNS_7235346278442 $T=790 2500 0 0 $X=0 $Y=2000
X3 1 VIATP_C_CDNS_7235346278442 $T=790 3500 0 0 $X=0 $Y=3000
X4 1 VIATP_C_CDNS_7235346278442 $T=790 4500 0 0 $X=0 $Y=4000
.ends MASCO__X2

* +++++++++++++++++++++++++++++++++++++++++++++++++++++++++ *
* Sub cell: VIATP_C_CDNS_7235346278439                      *
* +++++++++++++++++++++++++++++++++++++++++++++++++++++++++ *
.subckt VIATP_C_CDNS_7235346278439 1
** N=1 EP=1 FDC=0
.ends VIATP_C_CDNS_7235346278439

* +++++++++++++++++++++++++++++++++++++++++++++++++++++++++ *
* Sub cell: MASCO__Y6                                       *
* +++++++++++++++++++++++++++++++++++++++++++++++++++++++++ *
.subckt MASCO__Y6 1
** N=1 EP=1 FDC=0
X0 1 VIATP_C_CDNS_7235346278439 $T=500 530 0 0 $X=0 $Y=0
X1 1 VIATP_C_CDNS_7235346278439 $T=1500 530 0 0 $X=1000 $Y=0
X2 1 VIATP_C_CDNS_7235346278439 $T=2500 530 0 0 $X=2000 $Y=0
X3 1 VIATP_C_CDNS_7235346278439 $T=3500 530 0 0 $X=3000 $Y=0
X4 1 VIATP_C_CDNS_7235346278439 $T=4500 530 0 0 $X=4000 $Y=0
X5 1 VIATP_C_CDNS_7235346278439 $T=5500 530 0 0 $X=5000 $Y=0
X6 1 VIATP_C_CDNS_7235346278439 $T=6500 530 0 0 $X=6000 $Y=0
X7 1 VIATP_C_CDNS_7235346278439 $T=7500 530 0 0 $X=7000 $Y=0
X8 1 VIATP_C_CDNS_7235346278439 $T=8500 530 0 0 $X=8000 $Y=0
X9 1 VIATP_C_CDNS_7235346278439 $T=9500 530 0 0 $X=9000 $Y=0
X10 1 VIATP_C_CDNS_7235346278439 $T=10500 530 0 0 $X=10000 $Y=0
.ends MASCO__Y6

* +++++++++++++++++++++++++++++++++++++++++++++++++++++++++ *
* Sub cell: VIATP_C_CDNS_7235346278441                      *
* +++++++++++++++++++++++++++++++++++++++++++++++++++++++++ *
.subckt VIATP_C_CDNS_7235346278441 1
** N=1 EP=1 FDC=0
.ends VIATP_C_CDNS_7235346278441

* +++++++++++++++++++++++++++++++++++++++++++++++++++++++++ *
* Sub cell: MASCO__X5                                       *
* +++++++++++++++++++++++++++++++++++++++++++++++++++++++++ *
.subckt MASCO__X5 1
** N=1 EP=1 FDC=0
X0 1 VIATP_C_CDNS_7235346278441 $T=500 500 0 0 $X=0 $Y=0
X1 1 VIATP_C_CDNS_7235346278441 $T=500 1500 0 0 $X=0 $Y=1000
X2 1 VIATP_C_CDNS_7235346278441 $T=500 2500 0 0 $X=0 $Y=2000
X3 1 VIATP_C_CDNS_7235346278441 $T=500 3500 0 0 $X=0 $Y=3000
X4 1 VIATP_C_CDNS_7235346278441 $T=500 4500 0 0 $X=0 $Y=4000
.ends MASCO__X5

* +++++++++++++++++++++++++++++++++++++++++++++++++++++++++ *
* Sub cell: MASCO__Y7                                       *
* +++++++++++++++++++++++++++++++++++++++++++++++++++++++++ *
.subckt MASCO__Y7 1
** N=1 EP=1 FDC=0
X0 1 MASCO__X5 $T=0 0 0 0 $X=0 $Y=0
X1 1 MASCO__X5 $T=2000 0 0 0 $X=2000 $Y=0
X2 1 MASCO__X5 $T=4000 0 0 0 $X=4000 $Y=0
X3 1 MASCO__X5 $T=6000 0 0 0 $X=6000 $Y=0
X4 1 MASCO__X5 $T=8000 0 0 0 $X=8000 $Y=0
X5 1 MASCO__X5 $T=10000 0 0 0 $X=10000 $Y=0
X6 1 MASCO__X5 $T=12000 0 0 0 $X=12000 $Y=0
X7 1 MASCO__X5 $T=14000 0 0 0 $X=14000 $Y=0
X8 1 MASCO__X5 $T=16000 0 0 0 $X=16000 $Y=0
.ends MASCO__Y7

* +++++++++++++++++++++++++++++++++++++++++++++++++++++++++ *
* Sub cell: MASCO__X4                                       *
* +++++++++++++++++++++++++++++++++++++++++++++++++++++++++ *
.subckt MASCO__X4 1
** N=1 EP=1 FDC=0
X0 1 VIATP_C_CDNS_7235346278441 $T=500 500 0 0 $X=0 $Y=0
X1 1 VIATP_C_CDNS_7235346278441 $T=500 2500 0 0 $X=0 $Y=2000
X2 1 VIATP_C_CDNS_7235346278441 $T=500 4500 0 0 $X=0 $Y=4000
X3 1 VIATP_C_CDNS_7235346278441 $T=500 6500 0 0 $X=0 $Y=6000
X4 1 VIATP_C_CDNS_7235346278441 $T=500 8500 0 0 $X=0 $Y=8000
X5 1 VIATP_C_CDNS_7235346278441 $T=500 10500 0 0 $X=0 $Y=10000
X6 1 VIATP_C_CDNS_7235346278441 $T=500 12500 0 0 $X=0 $Y=12000
X7 1 VIATP_C_CDNS_7235346278441 $T=500 14500 0 0 $X=0 $Y=14000
X8 1 VIATP_C_CDNS_7235346278441 $T=500 16500 0 0 $X=0 $Y=16000
X9 1 VIATP_C_CDNS_7235346278441 $T=500 18500 0 0 $X=0 $Y=18000
X10 1 VIATP_C_CDNS_7235346278441 $T=500 20500 0 0 $X=0 $Y=20000
X11 1 VIATP_C_CDNS_7235346278441 $T=500 22500 0 0 $X=0 $Y=22000
.ends MASCO__X4

* +++++++++++++++++++++++++++++++++++++++++++++++++++++++++ *
* Sub cell: MASCO__Y8                                       *
* +++++++++++++++++++++++++++++++++++++++++++++++++++++++++ *
.subckt MASCO__Y8 1
** N=1 EP=1 FDC=0
X0 1 MASCO__X4 $T=0 0 0 0 $X=0 $Y=0
X1 1 MASCO__X4 $T=2000 0 0 0 $X=2000 $Y=0
X2 1 MASCO__X4 $T=4000 0 0 0 $X=4000 $Y=0
X3 1 MASCO__X4 $T=6000 0 0 0 $X=6000 $Y=0
X4 1 MASCO__X4 $T=8000 0 0 0 $X=8000 $Y=0
X5 1 MASCO__X4 $T=10000 0 0 0 $X=10000 $Y=0
X6 1 MASCO__X4 $T=12000 0 0 0 $X=12000 $Y=0
.ends MASCO__Y8

* +++++++++++++++++++++++++++++++++++++++++++++++++++++++++ *
* Sub cell: MASCO__X3                                       *
* +++++++++++++++++++++++++++++++++++++++++++++++++++++++++ *
.subckt MASCO__X3 1
** N=1 EP=1 FDC=0
X0 1 VIATP_C_CDNS_7235346278441 $T=500 500 0 0 $X=0 $Y=0
X1 1 VIATP_C_CDNS_7235346278441 $T=500 2500 0 0 $X=0 $Y=2000
X2 1 VIATP_C_CDNS_7235346278441 $T=500 4500 0 0 $X=0 $Y=4000
X3 1 VIATP_C_CDNS_7235346278441 $T=500 6500 0 0 $X=0 $Y=6000
X4 1 VIATP_C_CDNS_7235346278441 $T=500 8500 0 0 $X=0 $Y=8000
X5 1 VIATP_C_CDNS_7235346278441 $T=500 10500 0 0 $X=0 $Y=10000
X6 1 VIATP_C_CDNS_7235346278441 $T=500 12500 0 0 $X=0 $Y=12000
X7 1 VIATP_C_CDNS_7235346278441 $T=500 14500 0 0 $X=0 $Y=14000
X8 1 VIATP_C_CDNS_7235346278441 $T=500 16500 0 0 $X=0 $Y=16000
X9 1 VIATP_C_CDNS_7235346278441 $T=500 18500 0 0 $X=0 $Y=18000
X10 1 VIATP_C_CDNS_7235346278441 $T=500 20500 0 0 $X=0 $Y=20000
.ends MASCO__X3

* +++++++++++++++++++++++++++++++++++++++++++++++++++++++++ *
* Sub cell: MASCO__Y9                                       *
* +++++++++++++++++++++++++++++++++++++++++++++++++++++++++ *
.subckt MASCO__Y9 1
** N=1 EP=1 FDC=0
X0 1 MASCO__X3 $T=0 0 0 0 $X=0 $Y=0
X1 1 MASCO__X3 $T=2000 0 0 0 $X=2000 $Y=0
X2 1 MASCO__X3 $T=4000 0 0 0 $X=4000 $Y=0
X3 1 MASCO__X3 $T=6000 0 0 0 $X=6000 $Y=0
X4 1 MASCO__X3 $T=8000 0 0 0 $X=8000 $Y=0
X5 1 MASCO__X3 $T=10000 0 0 0 $X=10000 $Y=0
X6 1 MASCO__X3 $T=12000 0 0 0 $X=12000 $Y=0
.ends MASCO__Y9

* +++++++++++++++++++++++++++++++++++++++++++++++++++++++++ *
* Sub cell: current_source_gm_10_en_r                       *
* +++++++++++++++++++++++++++++++++++++++++++++++++++++++++ *
.subckt current_source_gm_10_en_r 2 19 23 9 16 18 24 20 14 27
+ 25
** N=27 EP=11 FDC=198
X0 1 VIA1_C_CDNS_723534627840 $T=7790 61030 0 0 $X=7390 $Y=60320
X1 2 VIA1_C_CDNS_723534627840 $T=18330 62810 0 0 $X=17930 $Y=62100
X2 1 VIA1_C_CDNS_723534627840 $T=28870 61030 0 0 $X=28470 $Y=60320
X3 3 VIA1_C_CDNS_723534627840 $T=33575 62810 0 0 $X=33175 $Y=62100
X4 4 VIA1_C_CDNS_723534627840 $T=44115 61030 0 0 $X=43715 $Y=60320
X5 3 VIA1_C_CDNS_723534627840 $T=54655 62810 0 0 $X=54255 $Y=62100
X6 5 VIA1_C_CDNS_723534627840 $T=59300 62950 0 0 $X=58900 $Y=62240
X7 6 VIA1_C_CDNS_723534627840 $T=69840 61110 0 0 $X=69440 $Y=60400
X8 5 VIA1_C_CDNS_723534627840 $T=80380 62950 0 0 $X=79980 $Y=62240
X9 7 VIA1_C_CDNS_723534627840 $T=106545 17830 0 0 $X=106145 $Y=17120
X10 8 VIA1_C_CDNS_723534627840 $T=106545 45950 0 0 $X=106145 $Y=45240
X11 7 VIA1_C_CDNS_723534627840 $T=117625 17830 0 0 $X=117225 $Y=17120
X12 8 VIA1_C_CDNS_723534627840 $T=117625 45950 0 0 $X=117225 $Y=45240
X13 7 VIA1_C_CDNS_723534627840 $T=128705 17830 0 0 $X=128305 $Y=17120
X14 8 VIA1_C_CDNS_723534627840 $T=128705 45950 0 0 $X=128305 $Y=45240
X15 7 VIA1_C_CDNS_723534627840 $T=139785 17830 0 0 $X=139385 $Y=17120
X16 8 VIA1_C_CDNS_723534627840 $T=139785 45950 0 0 $X=139385 $Y=45240
X17 7 VIA1_C_CDNS_723534627840 $T=150865 17830 0 0 $X=150465 $Y=17120
X18 8 VIA1_C_CDNS_723534627840 $T=150865 45950 0 0 $X=150465 $Y=45240
X19 8 VIA1_C_CDNS_723534627840 $T=160825 16050 0 0 $X=160425 $Y=15340
X20 7 VIA1_C_CDNS_723534627840 $T=160825 47730 0 0 $X=160425 $Y=47020
X21 8 VIA1_C_CDNS_723534627840 $T=171905 16050 0 0 $X=171505 $Y=15340
X22 7 VIA1_C_CDNS_723534627840 $T=171905 47730 0 0 $X=171505 $Y=47020
X23 8 VIA1_C_CDNS_723534627840 $T=182985 16050 0 0 $X=182585 $Y=15340
X24 7 VIA1_C_CDNS_723534627840 $T=182985 47730 0 0 $X=182585 $Y=47020
X25 8 VIA1_C_CDNS_723534627840 $T=194065 16050 0 0 $X=193665 $Y=15340
X26 7 VIA1_C_CDNS_723534627840 $T=194065 47730 0 0 $X=193665 $Y=47020
X27 8 VIA1_C_CDNS_723534627840 $T=205145 16050 0 0 $X=204745 $Y=15340
X28 7 VIA1_C_CDNS_723534627840 $T=205145 47730 0 0 $X=204745 $Y=47020
X29 9 VIA1_C_CDNS_723534627841 $T=247850 19860 0 0 $X=247710 $Y=18890
X30 10 VIA1_C_CDNS_723534627841 $T=248890 17580 0 0 $X=248750 $Y=16610
X31 9 VIA1_C_CDNS_723534627841 $T=249930 19860 0 0 $X=249790 $Y=18890
X32 10 VIA1_C_CDNS_723534627841 $T=250970 17580 0 0 $X=250830 $Y=16610
X33 9 VIA1_C_CDNS_723534627841 $T=252010 19860 0 0 $X=251870 $Y=18890
X34 1 VIA1_C_CDNS_723534627842 $T=33660 31900 0 0 $X=33260 $Y=31710
X35 1 VIA1_C_CDNS_723534627842 $T=44900 31900 0 0 $X=44500 $Y=31710
X36 1 VIA1_C_CDNS_723534627842 $T=56140 31900 0 0 $X=55740 $Y=31710
X37 4 VIA1_C_CDNS_723534627842 $T=63465 83370 0 0 $X=63065 $Y=83180
X38 4 VIA1_C_CDNS_723534627842 $T=65705 83370 0 0 $X=65305 $Y=83180
X39 4 VIA1_C_CDNS_723534627842 $T=67945 83370 0 0 $X=67545 $Y=83180
X40 4 VIA1_C_CDNS_723534627842 $T=70185 83370 0 0 $X=69785 $Y=83180
X41 4 VIA1_C_CDNS_723534627842 $T=72425 83370 0 0 $X=72025 $Y=83180
X42 7 VIA1_C_CDNS_723534627842 $T=117900 81120 0 0 $X=117500 $Y=80930
X43 8 VIA1_C_CDNS_723534627842 $T=119550 81900 0 0 $X=119150 $Y=81710
X44 6 VIA1_C_CDNS_723534627842 $T=122400 137545 0 0 $X=122000 $Y=137355
X45 7 VIA1_C_CDNS_723534627842 $T=124680 81120 0 0 $X=124280 $Y=80930
X46 8 VIA1_C_CDNS_723534627842 $T=125360 81900 0 0 $X=124960 $Y=81710
X47 6 VIA1_C_CDNS_723534627842 $T=128640 137545 0 0 $X=128240 $Y=137355
X48 7 VIA1_C_CDNS_723534627842 $T=130380 81120 0 0 $X=129980 $Y=80930
X49 8 VIA1_C_CDNS_723534627842 $T=132030 81900 0 0 $X=131630 $Y=81710
X50 6 VIA1_C_CDNS_723534627842 $T=134880 137545 0 0 $X=134480 $Y=137355
X51 7 VIA1_C_CDNS_723534627842 $T=137160 81120 0 0 $X=136760 $Y=80930
X52 8 VIA1_C_CDNS_723534627842 $T=137840 81900 0 0 $X=137440 $Y=81710
X53 6 VIA1_C_CDNS_723534627842 $T=141120 137545 0 0 $X=140720 $Y=137355
X54 7 VIA1_C_CDNS_723534627842 $T=142860 81120 0 0 $X=142460 $Y=80930
X55 8 VIA1_C_CDNS_723534627842 $T=144510 81900 0 0 $X=144110 $Y=81710
X56 6 VIA1_C_CDNS_723534627842 $T=147360 137545 0 0 $X=146960 $Y=137355
X57 7 VIA1_C_CDNS_723534627842 $T=149640 81120 0 0 $X=149240 $Y=80930
X58 8 VIA1_C_CDNS_723534627842 $T=150320 81900 0 0 $X=149920 $Y=81710
X59 6 VIA1_C_CDNS_723534627842 $T=153600 137545 0 0 $X=153200 $Y=137355
X60 7 VIA1_C_CDNS_723534627842 $T=155340 81120 0 0 $X=154940 $Y=80930
X61 8 VIA1_C_CDNS_723534627842 $T=156990 81900 0 0 $X=156590 $Y=81710
X62 6 VIA1_C_CDNS_723534627842 $T=159840 137545 0 0 $X=159440 $Y=137355
X63 7 VIA1_C_CDNS_723534627842 $T=162120 81120 0 0 $X=161720 $Y=80930
X64 8 VIA1_C_CDNS_723534627842 $T=162800 81900 0 0 $X=162400 $Y=81710
X65 6 VIA1_C_CDNS_723534627842 $T=166080 137545 0 0 $X=165680 $Y=137355
X66 7 VIA1_C_CDNS_723534627842 $T=167820 81120 0 0 $X=167420 $Y=80930
X67 8 VIA1_C_CDNS_723534627842 $T=169470 81900 0 0 $X=169070 $Y=81710
X68 6 VIA1_C_CDNS_723534627842 $T=172320 137545 0 0 $X=171920 $Y=137355
X69 7 VIA1_C_CDNS_723534627842 $T=174600 81120 0 0 $X=174200 $Y=80930
X70 8 VIA1_C_CDNS_723534627842 $T=175280 81900 0 0 $X=174880 $Y=81710
X71 6 VIA1_C_CDNS_723534627842 $T=178560 137545 0 0 $X=178160 $Y=137355
X72 7 VIA1_C_CDNS_723534627842 $T=180300 81120 0 0 $X=179900 $Y=80930
X73 8 VIA1_C_CDNS_723534627842 $T=181950 81900 0 0 $X=181550 $Y=81710
X74 6 VIA1_C_CDNS_723534627842 $T=184800 137545 0 0 $X=184400 $Y=137355
X75 7 VIA1_C_CDNS_723534627842 $T=187080 81120 0 0 $X=186680 $Y=80930
X76 8 VIA1_C_CDNS_723534627842 $T=187760 81900 0 0 $X=187360 $Y=81710
X77 6 VIA1_C_CDNS_723534627842 $T=191040 137545 0 0 $X=190640 $Y=137355
X78 7 VIA1_C_CDNS_723534627842 $T=192780 81120 0 0 $X=192380 $Y=80930