* +++++++++++++++++++++++++++++++++++++++++++++++++++++++++ *
* CDL Netlist:                                              *
*                                                           *
* Cell Name  : hvswitch8                                    *
* Netlisted  : Mon Aug 26 08:53:08 2024                     *
* PVS Version: 23.11-s036 Wed Jan 17 18:11:41 PST 2024      *
* +++++++++++++++++++++++++++++++++++++++++++++++++++++++++ *
*.LDD
*.DEVTMPLT 0 LDDN(nedia) nedia2_d dnwtrm(D) p1trm(G) ndiff(S) bulk(B)
*.DEVTMPLT 1 LDDP(ped) ped12_d pwitrm(D) p1trm(G) pdiff(S) bulk(B)
*.DEVTMPLT 2 MN(ne3) nem ndiff(D) p1trm(G) ndiff(S) bulk(B)
*.DEVTMPLT 3 MP(pe3) pem pdiff(D) p1trm(G) pdiff(S) nwtrm(B)
*.DEVTMPLT 4 D(p_dnw) p_dnw bulk(POS) nwtrm(NEG)
*.DEVTMPLT 5 D(p_ddnw) p_ddnw bulk(POS) dnwtrm(NEG)
*.DEVTMPLT 6 D(p_dwhn) p_dwhn bulk(POS) hnw(NEG)
*.DEVTMPLT 7 D(dpp20) dpp20 pwitrm(POS) dnwtrm(NEG)
*.DEVTMPLT 8 D(dsba) d_dsba d_dsdf(POS) hnw(NEG) bulk(SUB)
*.DEVTMPLT 9 D(p_dnw3) p_dnwm bulk(POS) nwtrm(NEG)
*.DEVTMPLT 10 R(rpp1k1_3) rpp1k1_s p1trm(POS) p1trm(NEG) bulk(SUB)
*.DEVTMPLT 11 C(csf4a) d_csf4a m1atrm(POS) m1btrm(NEG)

* +++++++++++++++++++++++++++++++++++++++++++++++++++++++++ *
* Sub cell: VIATP_C_CDNS_7246551802815                      *
* +++++++++++++++++++++++++++++++++++++++++++++++++++++++++ *
.subckt VIATP_C_CDNS_7246551802815 1
** N=1 EP=1 FDC=0
.ends VIATP_C_CDNS_7246551802815

* +++++++++++++++++++++++++++++++++++++++++++++++++++++++++ *
* Sub cell: VIATP_C_CDNS_7246551802833                      *
* +++++++++++++++++++++++++++++++++++++++++++++++++++++++++ *
.subckt VIATP_C_CDNS_7246551802833 1
** N=1 EP=1 FDC=0
.ends VIATP_C_CDNS_7246551802833

* +++++++++++++++++++++++++++++++++++++++++++++++++++++++++ *
* Sub cell: VIATP_C_CDNS_7246551802834                      *
* +++++++++++++++++++++++++++++++++++++++++++++++++++++++++ *
.subckt VIATP_C_CDNS_7246551802834 1
** N=1 EP=1 FDC=0
.ends VIATP_C_CDNS_7246551802834

* +++++++++++++++++++++++++++++++++++++++++++++++++++++++++ *
* Sub cell: VIATP_C_CDNS_7246551802842                      *
* +++++++++++++++++++++++++++++++++++++++++++++++++++++++++ *
.subckt VIATP_C_CDNS_7246551802842 1
** N=1 EP=1 FDC=0
.ends VIATP_C_CDNS_7246551802842

* +++++++++++++++++++++++++++++++++++++++++++++++++++++++++ *
* Sub cell: VIATP_C_CDNS_7246551802846                      *
* +++++++++++++++++++++++++++++++++++++++++++++++++++++++++ *
.subckt VIATP_C_CDNS_7246551802846 1
** N=1 EP=1 FDC=0
.ends VIATP_C_CDNS_7246551802846

* +++++++++++++++++++++++++++++++++++++++++++++++++++++++++ *
* Sub cell: VIATP_C_CDNS_7246551802847                      *
* +++++++++++++++++++++++++++++++++++++++++++++++++++++++++ *
.subckt VIATP_C_CDNS_7246551802847 1
** N=1 EP=1 FDC=0
.ends VIATP_C_CDNS_7246551802847

* +++++++++++++++++++++++++++++++++++++++++++++++++++++++++ *
* Sub cell: VIATP_C_CDNS_7246551802848                      *
* +++++++++++++++++++++++++++++++++++++++++++++++++++++++++ *
.subckt VIATP_C_CDNS_7246551802848 1
** N=1 EP=1 FDC=0
.ends VIATP_C_CDNS_7246551802848

* +++++++++++++++++++++++++++++++++++++++++++++++++++++++++ *
* Sub cell: VIATP_C_CDNS_7246551802850                      *
* +++++++++++++++++++++++++++++++++++++++++++++++++++++++++ *
.subckt VIATP_C_CDNS_7246551802850 1
** N=1 EP=1 FDC=0
.ends VIATP_C_CDNS_7246551802850

* +++++++++++++++++++++++++++++++++++++++++++++++++++++++++ *
* Sub cell: VIATP_C_CDNS_7246551802851                      *
* +++++++++++++++++++++++++++++++++++++++++++++++++++++++++ *
.subckt VIATP_C_CDNS_7246551802851 1
** N=1 EP=1 FDC=0
.ends VIATP_C_CDNS_7246551802851

* +++++++++++++++++++++++++++++++++++++++++++++++++++++++++ *
* Sub cell: VIATP_C_CDNS_7246551802854                      *
* +++++++++++++++++++++++++++++++++++++++++++++++++++++++++ *
.subckt VIATP_C_CDNS_7246551802854 1
** N=1 EP=1 FDC=0
.ends VIATP_C_CDNS_7246551802854

* +++++++++++++++++++++++++++++++++++++++++++++++++++++++++ *
* Sub cell: VIATP_C_CDNS_7246551802855                      *
* +++++++++++++++++++++++++++++++++++++++++++++++++++++++++ *
.subckt VIATP_C_CDNS_7246551802855 1
** N=1 EP=1 FDC=0
.ends VIATP_C_CDNS_7246551802855

* +++++++++++++++++++++++++++++++++++++++++++++++++++++++++ *
* Sub cell: nedia_CDNS_724655180280                         *
* +++++++++++++++++++++++++++++++++++++++++++++++++++++++++ *
.subckt nedia_CDNS_724655180280 1 2 3 4
** N=4 EP=4 FDC=12
X0 2 3 4 1 LDDN w=5e-05 l=1.25e-06 adio=6.71697e-10 pdio=3.30958e-05 extlay=1 $[nedia] $X=-680 $Y=-4850 $dt=0
X1 2 3 4 1 LDDN w=5e-05 l=1.25e-06 adio=6.71697e-10 pdio=3.30958e-05 extlay=1 $[nedia] $X=11220 $Y=-4850 $dt=0
X2 2 3 4 1 LDDN w=5e-05 l=1.25e-06 adio=6.71697e-10 pdio=3.30958e-05 extlay=1 $[nedia] $X=23120 $Y=-4850 $dt=0
X3 2 3 4 1 LDDN w=5e-05 l=1.25e-06 adio=6.71697e-10 pdio=3.30958e-05 extlay=1 $[nedia] $X=35020 $Y=-4850 $dt=0
X4 2 3 4 1 LDDN w=5e-05 l=1.25e-06 adio=6.71697e-10 pdio=3.30958e-05 extlay=1 $[nedia] $X=46920 $Y=-4850 $dt=0
X5 2 3 4 1 LDDN w=5e-05 l=1.25e-06 adio=6.71697e-10 pdio=3.30958e-05 extlay=1 $[nedia] $X=58820 $Y=-4850 $dt=0
X6 2 3 4 1 LDDN w=5e-05 l=1.25e-06 adio=6.71697e-10 pdio=3.30958e-05 extlay=1 $[nedia] $X=70720 $Y=-4850 $dt=0
X7 2 3 4 1 LDDN w=5e-05 l=1.25e-06 adio=6.71697e-10 pdio=3.30958e-05 extlay=1 $[nedia] $X=82620 $Y=-4850 $dt=0
X8 2 3 4 1 LDDN w=5e-05 l=1.25e-06 adio=6.71697e-10 pdio=3.30958e-05 extlay=1 $[nedia] $X=94520 $Y=-4850 $dt=0
X9 2 3 4 1 LDDN w=5e-05 l=1.25e-06 adio=6.71697e-10 pdio=3.30958e-05 extlay=1 $[nedia] $X=106420 $Y=-4850 $dt=0
X10 2 3 4 1 LDDN w=5e-05 l=1.25e-06 adio=6.71697e-10 pdio=3.30958e-05 extlay=1 $[nedia] $X=118320 $Y=-4850 $dt=0
X11 2 3 4 1 LDDN w=5e-05 l=1.25e-06 adio=6.71697e-10 pdio=3.30958e-05 extlay=1 $[nedia] $X=130220 $Y=-4850 $dt=0
.ends nedia_CDNS_724655180280

* +++++++++++++++++++++++++++++++++++++++++++++++++++++++++ *
* Sub cell: MASCO__X10                                      *
* +++++++++++++++++++++++++++++++++++++++++++++++++++++++++ *
.subckt MASCO__X10 1
** N=1 EP=1 FDC=0
X0 1 VIATP_C_CDNS_7246551802815 $T=500 500 0 0 $X=0 $Y=0
X1 1 VIATP_C_CDNS_7246551802815 $T=500 1500 0 0 $X=0 $Y=1000
X2 1 VIATP_C_CDNS_7246551802815 $T=500 2500 0 0 $X=0 $Y=2000
X3 1 VIATP_C_CDNS_7246551802815 $T=500 3500 0 0 $X=0 $Y=3000
X4 1 VIATP_C_CDNS_7246551802815 $T=500 4500 0 0 $X=0 $Y=4000
X5 1 VIATP_C_CDNS_7246551802815 $T=500 5500 0 0 $X=0 $Y=5000
X6 1 VIATP_C_CDNS_7246551802815 $T=500 6500 0 0 $X=0 $Y=6000
X7 1 VIATP_C_CDNS_7246551802815 $T=500 7500 0 0 $X=0 $Y=7000
X8 1 VIATP_C_CDNS_7246551802815 $T=500 8500 0 0 $X=0 $Y=8000
X9 1 VIATP_C_CDNS_7246551802815 $T=500 9500 0 0 $X=0 $Y=9000
.ends MASCO__X10

* +++++++++++++++++++++++++++++++++++++++++++++++++++++++++ *
* Sub cell: MASCO__X12                                      *
* +++++++++++++++++++++++++++++++++++++++++++++++++++++++++ *
.subckt MASCO__X12 1
** N=1 EP=1 FDC=0
X0 1 VIATP_C_CDNS_7246551802815 $T=500 500 0 0 $X=0 $Y=0
X1 1 VIATP_C_CDNS_7246551802815 $T=500 2500 0 0 $X=0 $Y=2000
X2 1 VIATP_C_CDNS_7246551802815 $T=500 4500 0 0 $X=0 $Y=4000
X3 1 VIATP_C_CDNS_7246551802815 $T=500 6500 0 0 $X=0 $Y=6000
X4 1 VIATP_C_CDNS_7246551802815 $T=500 8500 0 0 $X=0 $Y=8000
.ends MASCO__X12

* +++++++++++++++++++++++++++++++++++++++++++++++++++++++++ *
* Sub cell: MASCO__Y19                                      *
* +++++++++++++++++++++++++++++++++++++++++++++++++++++++++ *
.subckt MASCO__Y19 1
** N=1 EP=1 FDC=0
X0 1 VIATP_C_CDNS_7246551802833 $T=500 620 0 0 $X=0 $Y=0
X1 1 VIATP_C_CDNS_7246551802833 $T=1500 620 0 0 $X=1000 $Y=0
X2 1 VIATP_C_CDNS_7246551802833 $T=2500 620 0 0 $X=2000 $Y=0
X3 1 VIATP_C_CDNS_7246551802833 $T=3500 620 0 0 $X=3000 $Y=0
X4 1 VIATP_C_CDNS_7246551802833 $T=4500 620 0 0 $X=4000 $Y=0
X5 1 VIATP_C_CDNS_7246551802833 $T=5500 620 0 0 $X=5000 $Y=0
X6 1 VIATP_C_CDNS_7246551802833 $T=6500 620 0 0 $X=6000 $Y=0
X7 1 VIATP_C_CDNS_7246551802833 $T=7500 620 0 0 $X=7000 $Y=0
X8 1 VIATP_C_CDNS_7246551802833 $T=8500 620 0 0 $X=8000 $Y=0
X9 1 VIATP_C_CDNS_7246551802833 $T=9500 620 0 0 $X=9000 $Y=0
X10 1 VIATP_C_CDNS_7246551802833 $T=10500 620 0 0 $X=10000 $Y=0
X11 1 VIATP_C_CDNS_7246551802833 $T=11500 620 0 0 $X=11000 $Y=0
.ends MASCO__Y19

* +++++++++++++++++++++++++++++++++++++++++++++++++++++++++ *
* Sub cell: MASCO__Y23                                      *
* +++++++++++++++++++++++++++++++++++++++++++++++++++++++++ *
.subckt MASCO__Y23 1
** N=1 EP=1 FDC=0
X0 1 MASCO__X12 $T=0 0 0 0 $X=0 $Y=0
X1 1 MASCO__X12 $T=2000 0 0 0 $X=2000 $Y=0
X2 1 MASCO__X12 $T=4000 0 0 0 $X=4000 $Y=0
X3 1 MASCO__X12 $T=6000 0 0 0 $X=6000 $Y=0
X4 1 MASCO__X12 $T=8000 0 0 0 $X=8000 $Y=0
X5 1 MASCO__X12 $T=10000 0 0 0 $X=10000 $Y=0
X6 1 MASCO__X12 $T=12000 0 0 0 $X=12000 $Y=0
X7 1 MASCO__X12 $T=14000 0 0 0 $X=14000 $Y=0
.ends MASCO__Y23

* +++++++++++++++++++++++++++++++++++++++++++++++++++++++++ *
* Sub cell: MASCO__Y24                                      *
* +++++++++++++++++++++++++++++++++++++++++++++++++++++++++ *
.subckt MASCO__Y24 1
** N=1 EP=1 FDC=0
X0 1 MASCO__X10 $T=0 0 0 0 $X=0 $Y=0
X1 1 MASCO__X10 $T=2000 0 0 0 $X=2000 $Y=0
X2 1 MASCO__X10 $T=4000 0 0 0 $X=4000 $Y=0
X3 1 MASCO__X10 $T=6000 0 0 0 $X=6000 $Y=0
X4 1 MASCO__X10 $T=8000 0 0 0 $X=8000 $Y=0
X5 1 MASCO__X10 $T=10000 0 0 0 $X=10000 $Y=0
X6 1 MASCO__X10 $T=12000 0 0 0 $X=12000 $Y=0
X7 1 MASCO__X10 $T=14000 0 0 0 $X=14000 $Y=0
.ends MASCO__Y24

* +++++++++++++++++++++++++++++++++++++++++++++++++++++++++ *
* Sub cell: MASCO__H1                                       *
* +++++++++++++++++++++++++++++++++++++++++++++++++++++++++ *
.subckt MASCO__H1 1 2 3 4
** N=4 EP=4 FDC=12
X0 4 VIATP_C_CDNS_7246551802815 $T=346380 92210 0 0 $X=345880 $Y=91710
X1 4 VIATP_C_CDNS_7246551802833 $T=234380 102330 0 0 $X=233880 $Y=101710
X2 3 VIATP_C_CDNS_7246551802833 $T=257995 144490 0 0 $X=257495 $Y=143870
X3 3 VIATP_C_CDNS_7246551802833 $T=258995 144490 0 0 $X=258495 $Y=143870
X4 3 VIATP_C_CDNS_7246551802833 $T=259995 144490 0 0 $X=259495 $Y=143870
X5 3 VIATP_C_CDNS_7246551802833 $T=260995 144490 0 0 $X=260495 $Y=143870
X6 3 VIATP_C_CDNS_7246551802833 $T=261995 144490 0 0 $X=261495 $Y=143870
X7 3 VIATP_C_CDNS_7246551802833 $T=262995 144490 0 0 $X=262495 $Y=143870
X8 3 VIATP_C_CDNS_7246551802833 $T=263995 144490 0 0 $X=263495 $Y=143870
X9 3 VIATP_C_CDNS_7246551802833 $T=264995 144490 0 0 $X=264495 $Y=143870
X10 3 VIATP_C_CDNS_7246551802833 $T=265995 144490 0 0 $X=265495 $Y=143870
X11 3 VIATP_C_CDNS_7246551802833 $T=266995 144490 0 0 $X=266495 $Y=143870
X12 4 VIATP_C_CDNS_7246551802833 $T=343380 102330 0 0 $X=342880 $Y=101710
X13 4 VIATP_C_CDNS_7246551802833 $T=344380 102330 0 0 $X=343880 $Y=101710
X14 4 VIATP_C_CDNS_7246551802833 $T=345380 102330 0 0 $X=344880 $Y=101710
X15 3 VIATP_C_CDNS_7246551802833 $T=365995 144490 0 0 $X=365495 $Y=143870
X16 3 VIATP_C_CDNS_7246551802833 $T=366995 144490 0 0 $X=366495 $Y=143870
X17 3 VIATP_C_CDNS_7246551802833 $T=367995 144490 0 0 $X=367495 $Y=143870
X18 3 VIATP_C_CDNS_7246551802833 $T=368995 144490 0 0 $X=368495 $Y=143870
X19 3 VIATP_C_CDNS_7246551802833 $T=369995 144490 0 0 $X=369495 $Y=143870
X20 3 VIATP_C_CDNS_7246551802833 $T=370995 144490 0 0 $X=370495 $Y=143870
X21 3 VIATP_C_CDNS_7246551802833 $T=371995 144490 0 0 $X=371495 $Y=143870
X22 4 VIATP_C_CDNS_7246551802833 $T=372380 102330 0 0 $X=371880 $Y=101710
X23 3 VIATP_C_CDNS_7246551802833 $T=372995 144490 0 0 $X=372495 $Y=143870
X24 4 VIATP_C_CDNS_7246551802833 $T=373380 102330 0 0 $X=372880 $Y=101710
X25 3 VIATP_C_CDNS_7246551802833 $T=373995 144490 0 0 $X=373495 $Y=143870
X26 4 VIATP_C_CDNS_7246551802833 $T=374380 102330 0 0 $X=373880 $Y=101710
X27 3 VIATP_C_CDNS_7246551802833 $T=374995 144490 0 0 $X=374495 $Y=143870
X28 4 VIATP_C_CDNS_7246551802833 $T=375380 102330 0 0 $X=374880 $Y=101710
X29 3 VIATP_C_CDNS_7246551802833 $T=375995 144490 0 0 $X=375495 $Y=143870
X30 4 VIATP_C_CDNS_7246551802833 $T=376380 102330 0 0 $X=375880 $Y=101710
X31 3 VIATP_C_CDNS_7246551802833 $T=377995 144490 0 0 $X=377495 $Y=143870
X32 4 VIATP_C_CDNS_7246551802833 $T=378380 102330 0 0 $X=377880 $Y=101710
X33 3 VIATP_C_CDNS_7246551802833 $T=378995 144490 0 0 $X=378495 $Y=143870
X34 4 VIATP_C_CDNS_7246551802833 $T=379380 102330 0 0 $X=378880 $Y=101710
X35 3 VIATP_C_CDNS_7246551802833 $T=379995 144490 0 0 $X=379495 $Y=143870
X36 4 VIATP_C_CDNS_7246551802833 $T=380380 102330 0 0 $X=379880 $Y=101710
X37 3 VIATP_C_CDNS_7246551802833 $T=380995 144490 0 0 $X=380495 $Y=143870
X38 4 VIATP_C_CDNS_7246551802833 $T=381380 102330 0 0 $X=380880 $Y=101710
X39 3 VIATP_C_CDNS_7246551802833 $T=381995 144490 0 0 $X=381495 $Y=143870
X40 4 VIATP_C_CDNS_7246551802833 $T=382380 102330 0 0 $X=381880 $Y=101710
X41 3 VIATP_C_CDNS_7246551802833 $T=382995 144490 0 0 $X=382495 $Y=143870
X42 4 VIATP_C_CDNS_7246551802833 $T=383380 102330 0 0 $X=382880 $Y=101710
X43 3 VIATP_C_CDNS_7246551802833 $T=383995 144490 0 0 $X=383495 $Y=143870
X44 4 VIATP_C_CDNS_7246551802833 $T=384380 102330 0 0 $X=383880 $Y=101710
X45 3 VIATP_C_CDNS_7246551802833 $T=384995 144490 0 0 $X=384495 $Y=143870
X46 4 VIATP_C_CDNS_7246551802833 $T=385380 102330 0 0 $X=384880 $Y=101710
X47 4 VIATP_C_CDNS_7246551802834 $T=377440 102330 0 0 $X=377000 $Y=101710
X48 3 VIATP_C_CDNS_7246551802842 $T=376745 145610 0 0 $X=376475 $Y=145110
X49 3 VIATP_C_CDNS_7246551802842 $T=376745 146610 0 0 $X=376475 $Y=146110
X50 3 VIATP_C_CDNS_7246551802842 $T=376745 147610 0 0 $X=376475 $Y=147110
X51 3 VIATP_C_CDNS_7246551802842 $T=376745 148610 0 0 $X=376475 $Y=148110
X52 3 VIATP_C_CDNS_7246551802842 $T=376745 149610 0 0 $X=376475 $Y=149110
X53 3 VIATP_C_CDNS_7246551802842 $T=376745 150610 0 0 $X=376475 $Y=150110
X54 3 VIATP_C_CDNS_7246551802842 $T=376745 151610 0 0 $X=376475 $Y=151110
X55 3 VIATP_C_CDNS_7246551802842 $T=376745 152610 0 0 $X=376475 $Y=152110
X56 3 VIATP_C_CDNS_7246551802842 $T=376745 153610 0 0 $X=376475 $Y=153110
X57 3 VIATP_C_CDNS_7246551802842 $T=376745 154610 0 0 $X=376475 $Y=154110
X58 3 VIATP_C_CDNS_7246551802846 $T=232755 144490 0 0 $X=232025 $Y=143870
X59 3 VIATP_C_CDNS_7246551802847 $T=268645 145610 0 0 $X=268375 $Y=145110
X60 3 VIATP_C_CDNS_7246551802847 $T=268645 146610 0 0 $X=268375 $Y=146110
X61 3 VIATP_C_CDNS_7246551802847 $T=268645 147610 0 0 $X=268375 $Y=147110
X62 3 VIATP_C_CDNS_7246551802847 $T=268645 148610 0 0 $X=268375 $Y=148110
X63 3 VIATP_C_CDNS_7246551802847 $T=268645 149610 0 0 $X=268375 $Y=149110
X64 3 VIATP_C_CDNS_7246551802847 $T=268645 150610 0 0 $X=268375 $Y=150110
X65 3 VIATP_C_CDNS_7246551802847 $T=268645 151610 0 0 $X=268375 $Y=151110
X66 3 VIATP_C_CDNS_7246551802847 $T=268645 152610 0 0 $X=268375 $Y=152110
X67 3 VIATP_C_CDNS_7246551802847 $T=268645 153610 0 0 $X=268375 $Y=153110
X68 3 VIATP_C_CDNS_7246551802847 $T=268645 154610 0 0 $X=268375 $Y=154110
X69 3 VIATP_C_CDNS_7246551802848 $T=232755 145610 0 0 $X=232025 $Y=145110
X70 3 VIATP_C_CDNS_7246551802848 $T=232755 146610 0 0 $X=232025 $Y=146110
X71 3 VIATP_C_CDNS_7246551802848 $T=232755 147610 0 0 $X=232025 $Y=147110
X72 3 VIATP_C_CDNS_7246551802848 $T=232755 148610 0 0 $X=232025 $Y=148110
X73 3 VIATP_C_CDNS_7246551802848 $T=232755 149610 0 0 $X=232025 $Y=149110
X74 3 VIATP_C_CDNS_7246551802848 $T=232755 150610 0 0 $X=232025 $Y=150110
X75 3 VIATP_C_CDNS_7246551802848 $T=232755 151610 0 0 $X=232025 $Y=151110
X76 3 VIATP_C_CDNS_7246551802848 $T=232755 152610 0 0 $X=232025 $Y=152110
X77 3 VIATP_C_CDNS_7246551802848 $T=232755 153610 0 0 $X=232025 $Y=153110
X78 3 VIATP_C_CDNS_7246551802848 $T=232755 154610 0 0 $X=232025 $Y=154110
X79 4 VIATP_C_CDNS_7246551802850 $T=232950 102330 0 0 $X=232020 $Y=101710
X80 4 VIATP_C_CDNS_7246551802851 $T=232950 92210 0 0 $X=232020 $Y=91710
X81 4 VIATP_C_CDNS_7246551802851 $T=232950 93210 0 0 $X=232020 $Y=92710
X82 4 VIATP_C_CDNS_7246551802851 $T=232950 94210 0 0 $X=232020 $Y=93710
X83 4 VIATP_C_CDNS_7246551802851 $T=232950 95210 0 0 $X=232020 $Y=94710
X84 4 VIATP_C_CDNS_7246551802851 $T=232950 96210 0 0 $X=232020 $Y=95710
X85 4 VIATP_C_CDNS_7246551802851 $T=232950 97210 0 0 $X=232020 $Y=96710
X86 4 VIATP_C_CDNS_7246551802851 $T=232950 98210 0 0 $X=232020 $Y=97710
X87 4 VIATP_C_CDNS_7246551802851 $T=232950 99210 0 0 $X=232020 $Y=98710
X88 4 VIATP_C_CDNS_7246551802851 $T=232950 100210 0 0 $X=232020 $Y=99710
X89 4 VIATP_C_CDNS_7246551802851 $T=232950 101210 0 0 $X=232020 $Y=100710
X90 4 VIATP_C_CDNS_7246551802854 $T=377440 92210 0 0 $X=377000 $Y=91710
X91 4 VIATP_C_CDNS_7246551802854 $T=377440 93210 0 0 $X=377000 $Y=92710
X92 4 VIATP_C_CDNS_7246551802854 $T=377440 94210 0 0 $X=377000 $Y=93710
X93 4 VIATP_C_CDNS_7246551802854 $T=377440 95210 0 0 $X=377000 $Y=94710
X94 4 VIATP_C_CDNS_7246551802854 $T=377440 96210 0 0 $X=377000 $Y=95710
X95 4 VIATP_C_CDNS_7246551802854 $T=377440 97210 0 0 $X=377000 $Y=96710
X96 4 VIATP_C_CDNS_7246551802854 $T=377440 98210 0 0 $X=377000 $Y=97710
X97 4 VIATP_C_CDNS_7246551802854 $T=377440 99210 0 0 $X=377000 $Y=98710
X98 4 VIATP_C_CDNS_7246551802854 $T=377440 100210 0 0 $X=377000 $Y=99710
X99 4 VIATP_C_CDNS_7246551802854 $T=377440 101210 0 0 $X=377000 $Y=100710
X100 4 VIATP_C_CDNS_7246551802855 $T=346510 94210 0 0 $X=346145 $Y=93710
X101 4 VIATP_C_CDNS_7246551802855 $T=346510 96210 0 0 $X=346145 $Y=95710
X102 4 VIATP_C_CDNS_7246551802855 $T=346510 98210 0 0 $X=346145 $Y=97710
X103 4 VIATP_C_CDNS_7246551802855 $T=346510 100210 0 0 $X=346145 $Y=99710
X104 1 3 2 4 nedia_CDNS_724655180280 $T=238930 110910 0 0 $X=222710 $Y=91520
X105 3 MASCO__X10 $T=234495 145110 0 0 $X=234495 $Y=145110
X106 3 MASCO__X10 $T=236495 145110 0 0 $X=236495 $Y=145110
X107 3 MASCO__X10 $T=238495 145110 0 0 $X=238495 $Y=145110
X108 3 MASCO__X10 $T=240495 145110 0 0 $X=240495 $Y=145110
X109 3 MASCO__X10 $T=242495 145110 0 0 $X=242495 $Y=145110
X110 3 MASCO__X10 $T=244495 145110 0 0 $X=244495 $Y=145110
X111 3 MASCO__X10 $T=246495 145110 0 0 $X=246495 $Y=145110
X112 3 MASCO__X10 $T=248495 145110 0 0 $X=248495 $Y=145110
X113 3 MASCO__X10 $T=250495 145110 0 0 $X=250495 $Y=145110
X114 3 MASCO__X10 $T=270495 145110 0 0 $X=270495 $Y=145110
X115 3 MASCO__X10 $T=272495 145110 0 0 $X=272495 $Y=145110
X116 3 MASCO__X10 $T=274495 145110 0 0 $X=274495 $Y=145110
X117 3 MASCO__X10 $T=276495 145110 0 0 $X=276495 $Y=145110
X118 3 MASCO__X10 $T=278495 145110 0 0 $X=278495 $Y=145110
X119 3 MASCO__X10 $T=280495 145110 0 0 $X=280495 $Y=145110
X120 3 MASCO__X10 $T=282495 145110 0 0 $X=282495 $Y=145110
X121 3 MASCO__X10 $T=284495 145110 0 0 $X=284495 $Y=145110
X122 3 MASCO__X10 $T=286495 145110 0 0 $X=286495 $Y=145110
X123 3 MASCO__X10 $T=288495 145110 0 0 $X=288495 $Y=145110
X124 3 MASCO__X10 $T=290495 145110 0 0 $X=290495 $Y=145110
X125 3 MASCO__X10 $T=292495 145110 0 0 $X=292495 $Y=145110
X126 3 MASCO__X10 $T=294495 145110 0 0 $X=294495 $Y=145110
X127 3 MASCO__X10 $T=296495 145110 0 0 $X=296495 $Y=145110
X128 3 MASCO__X10 $T=298495 145110 0 0 $X=298495 $Y=145110
X129 3 MASCO__X10 $T=300495 145110 0 0 $X=300495 $Y=145110
X130 3 MASCO__X10 $T=302495 145110 0 0 $X=302495 $Y=145110
X131 3 MASCO__X10 $T=304495 145110 0 0 $X=304495 $Y=145110
X132 3 MASCO__X10 $T=306495 145110 0 0 $X=306495 $Y=145110
X133 3 MASCO__X10 $T=308495 145110 0 0 $X=308495 $Y=145110
X134 3 MASCO__X10 $T=310495 145110 0 0 $X=310495 $Y=145110
X135 3 MASCO__X10 $T=312495 145110 0 0 $X=312495 $Y=145110
X136 3 MASCO__X10 $T=314495 145110 0 0 $X=314495 $Y=145110
X137 3 MASCO__X10 $T=316495 145110 0 0 $X=316495 $Y=145110
X138 3 MASCO__X10 $T=318495 145110 0 0 $X=318495 $Y=145110
X139 3 MASCO__X10 $T=320495 145110 0 0 $X=320495 $Y=145110
X140 3 MASCO__X10 $T=322495 145110 0 0 $X=322495 $Y=145110
X141 3 MASCO__X10 $T=324495 145110 0 0 $X=324495 $Y=145110
X142 3 MASCO__X10 $T=326495 145110 0 0 $X=326495 $Y=145110
X143 3 MASCO__X10 $T=328495 145110 0 0 $X=328495 $Y=145110
X144 3 MASCO__X10 $T=330495 145110 0 0 $X=330495 $Y=145110
X145 3 MASCO__X10 $T=332495 145110 0 0 $X=332495 $Y=145110
X146 3 MASCO__X10 $T=334495 145110 0 0 $X=334495 $Y=145110
X147 3 MASCO__X10 $T=336495 145110 0 0 $X=336495 $Y=145110
X148 3 MASCO__X10 $T=338495 145110 0 0 $X=338495 $Y=145110
X149 3 MASCO__X10 $T=340495 145110 0 0 $X=340495 $Y=145110
X150 3 MASCO__X10 $T=342495 145110 0 0 $X=342495 $Y=145110
X151 3 MASCO__X10 $T=344495 145110 0 0 $X=344495 $Y=145110
X152 3 MASCO__X10 $T=346495 145110 0 0 $X=346495 $Y=145110
X153 3 MASCO__X10 $T=348495 145110 0 0 $X=348495 $Y=145110
X154 4 MASCO__X10 $T=348880 91710 0 0 $X=348880 $Y=91710
X155 3 MASCO__X10 $T=350495 145110 0 0 $X=350495 $Y=145110
X156 4 MASCO__X10 $T=350880 91710 0 0 $X=350880 $Y=91710
X157 3 MASCO__X10 $T=352495 145110 0 0 $X=352495 $Y=145110
X158 4 MASCO__X10 $T=352880 91710 0 0 $X=352880 $Y=91710
X159 3 MASCO__X10 $T=354495 145110 0 0 $X=354495 $Y=145110
X160 4 MASCO__X10 $T=354880 91710 0 0 $X=354880 $Y=91710
X161 3 MASCO__X10 $T=356495 145110 0 0 $X=356495 $Y=145110
X162 4 MASCO__X10 $T=356880 91710 0 0 $X=356880 $Y=91710
X163 3 MASCO__X10 $T=358495 145110 0 0 $X=358495 $Y=145110
X164 4 MASCO__X10 $T=358880 91710 0 0 $X=358880 $Y=91710
X165 3 MASCO__X10 $T=360495 145110 0 0 $X=360495 $Y=145110
X166 4 MASCO__X10 $T=360880 91710 0 0 $X=360880 $Y=91710
X167 3 MASCO__X10 $T=362495 145110 0 0 $X=362495 $Y=145110
X168 4 MASCO__X10 $T=362880 91710 0 0 $X=362880 $Y=91710
X169 3 MASCO__X10 $T=364495 145110 0 0 $X=364495 $Y=145110
X170 4 MASCO__X10 $T=364880 91710 0 0 $X=364880 $Y=91710
X171 3 MASCO__X10 $T=366495 145110 0 0 $X=366495 $Y=145110
X172 4 MASCO__X10 $T=366880 91710 0 0 $X=366880 $Y=91710
X173 3 MASCO__X10 $T=368495 145110 0 0 $X=368495 $Y=145110
X174 4 MASCO__X10 $T=368880 91710 0 0 $X=368880 $Y=91710
X175 3 MASCO__X10 $T=370495 145110 0 0 $X=370495 $Y=145110
X176 4 MASCO__X10 $T=370880 91710 0 0 $X=370880 $Y=91710
X177 3 MASCO__X10 $T=372495 145110 0 0 $X=372495 $Y=145110
X178 4 MASCO__X10 $T=372880 91710 0 0 $X=372880 $Y=91710
X179 3 MASCO__X10 $T=374495 145110 0 0 $X=374495 $Y=145110
X180 4 MASCO__X10 $T=374880 91710 0 0 $X=374880 $Y=91710
X181 3 MASCO__X10 $T=378495 145110 0 0 $X=378495 $Y=145110
X182 4 MASCO__X10 $T=378880 91710 0 0 $X=378880 $Y=91710
X183 3 MASCO__X10 $T=380495 145110 0 0 $X=380495 $Y=145110
X184 4 MASCO__X10 $T=380880 91710 0 0 $X=380880 $Y=91710
X185 3 MASCO__X10 $T=382495 145110 0 0 $X=382495 $Y=145110
X186 4 MASCO__X10 $T=382880 91710 0 0 $X=382880 $Y=91710
X187 3 MASCO__X10 $T=384495 145110 0 0 $X=384495 $Y=145110
X188 4 MASCO__X10 $T=384880 91710 0 0 $X=384880 $Y=91710
X189 3 MASCO__X12 $T=233495 146110 0 0 $X=233495 $Y=146110
X190 3 MASCO__X12 $T=235495 146110 0 0 $X=235495 $Y=146110
X191 3 MASCO__X12 $T=237495 146110 0 0 $X=237495 $Y=146110
X192 3 MASCO__X12 $T=239495 146110 0 0 $X=239495 $Y=146110
X193 3 MASCO__X12 $T=241495 146110 0 0 $X=241495 $Y=146110
X194 3 MASCO__X12 $T=243495 146110 0 0 $X=243495 $Y=146110
X195 3 MASCO__X12 $T=245495 146110 0 0 $X=245495 $Y=146110
X196 3 MASCO__X12 $T=247495 146110 0 0 $X=247495 $Y=146110
X197 3 MASCO__X12 $T=249495 146110 0 0 $X=249495 $Y=146110
X198 3 MASCO__X12 $T=269495 146110 0 0 $X=269495 $Y=146110
X199 3 MASCO__X12 $T=271495 146110 0 0 $X=271495 $Y=146110
X200 3 MASCO__X12 $T=273495 146110 0 0 $X=273495 $Y=146110
X201 3 MASCO__X12 $T=275495 146110 0 0 $X=275495 $Y=146110
X202 3 MASCO__X12 $T=277495 146110 0 0 $X=277495 $Y=146110
X203 3 MASCO__X12 $T=279495 146110 0 0 $X=279495 $Y=146110
X204 3 MASCO__X12 $T=281495 146110 0 0 $X=281495 $Y=146110
X205 3 MASCO__X12 $T=283495 146110 0 0 $X=283495 $Y=146110
X206 3 MASCO__X12 $T=285495 146110 0 0 $X=285495 $Y=146110
X207 3 MASCO__X12 $T=287495 146110 0 0 $X=287495 $Y=146110
X208 3 MASCO__X12 $T=289495 146110 0 0 $X=289495 $Y=146110
X209 3 MASCO__X12 $T=291495 146110 0 0 $X=291495 $Y=146110
X210 3 MASCO__X12 $T=293495 146110 0 0 $X=293495 $Y=146110
X211 3 MASCO__X12 $T=295495 146110 0 0 $X=295495 $Y=146110
X212 3 MASCO__X12 $T=297495 146110 0 0 $X=297495 $Y=146110
X213 3 MASCO__X12 $T=299495 146110 0 0 $X=299495 $Y=146110
X214 3 MASCO__X12 $T=301495 146110 0 0 $X=301495 $Y=146110
X215 3 MASCO__X12 $T=303495 146110 0 0 $X=303495 $Y=146110
X216 3 MASCO__X12 $T=305495 146110 0 0 $X=305495 $Y=146110
X217 3 MASCO__X12 $T=307495 146110 0 0 $X=307495 $Y=146110
X218 3 MASCO__X12 $T=309495 146110 0 0 $X=309495 $Y=146110
X219 3 MASCO__X12 $T=311495 146110 0 0 $X=311495 $Y=146110
X220 3 MASCO__X12 $T=313495 146110 0 0 $X=313495 $Y=146110
X221 3 MASCO__X12 $T=315495 146110 0 0 $X=315495 $Y=146110
X222 3 MASCO__X12 $T=317495 146110 0 0 $X=317495 $Y=146110
X223 3 MASCO__X12 $T=319495 146110 0 0 $X=319495 $Y=146110
X224 3 MASCO__X12 $T=321495 146110 0 0 $X=321495 $Y=146110
X225 3 MASCO__X12 $T=323495 146110 0 0 $X=323495 $Y=146110
X226 3 MASCO__X12 $T=325495 146110 0 0 $X=325495 $Y=146110
X227 3 MASCO__X12 $T=327495 146110 0 0 $X=327495 $Y=146110
X228 3 MASCO__X12 $T=329495 146110 0 0 $X=329495 $Y=146110
X229 3 MASCO__X12 $T=331495 146110 0 0 $X=331495 $Y=146110
X230 3 MASCO__X12 $T=333495 146110 0 0 $X=333495 $Y=146110
X231 3 MASCO__X12 $T=335495 146110 0 0 $X=335495 $Y=146110
X232 3 MASCO__X12 $T=337495 146110 0 0 $X=337495 $Y=146110
X233 3 MASCO__X12 $T=339495 146110 0 0 $X=339495 $Y=146110
X234 3 MASCO__X12 $T=341495 146110 0 0 $X=341495 $Y=146110
X235 3 MASCO__X12 $T=343495 146110 0 0 $X=343495 $Y=146110
X236 3 MASCO__X12 $T=345495 146110 0 0 $X=345495 $Y=146110
X237 3 MASCO__X12 $T=347495 146110 0 0 $X=347495 $Y=146110
X238 4 MASCO__X12 $T=347880 91710 0 0 $X=347880 $Y=91710
X239 3 MASCO__X12 $T=349495 146110 0 0 $X=349495 $Y=146110
X240 4 MASCO__X12 $T=349880 91710 0 0 $X=349880 $Y=91710
X241 3 MASCO__X12 $T=351495 146110 0 0 $X=351495 $Y=146110
X242 4 MASCO__X12 $T=351880 91710 0 0 $X=351880 $Y=91710
X243 3 MASCO__X12 $T=353495 146110 0 0 $X=353495 $Y=146110
X244 4 MASCO__X12 $T=353880 91710 0 0 $X=353880 $Y=91710
X245 3 MASCO__X12 $T=355495 146110 0 0 $X=355495 $Y=146110
X246 4 MASCO__X12 $T=355880 91710 0 0 $X=355880 $Y=91710
X247 3 MASCO__X12 $T=357495 146110 0 0 $X=357495 $Y=146110
X248 4 MASCO__X12 $T=357880 91710 0 0 $X=357880 $Y=91710
X249 3 MASCO__X12 $T=359495 146110 0 0 $X=359495 $Y=146110
X250 4 MASCO__X12 $T=359880 91710 0 0 $X=359880 $Y=91710
X251 3 MASCO__X12 $T=361495 146110 0 0 $X=361495 $Y=146110
X252 4 MASCO__X12 $T=361880 91710 0 0 $X=361880 $Y=91710
X253 3 MASCO__X12 $T=363495 146110 0 0 $X=363495 $Y=146110
X254 4 MASCO__X12 $T=363880 91710 0 0 $X=363880 $Y=91710
X255 3 MASCO__X12 $T=365495 146110 0 0 $X=365495 $Y=146110
X256 4 MASCO__X12 $T=365880 91710 0 0 $X=365880 $Y=91710
X257 3 MASCO__X12 $T=367495 146110 0 0 $X=367495 $Y=146110
X258 4 MASCO__X12 $T=367880 91710 0 0 $X=367880 $Y=91710
X259 3 MASCO__X12 $T=369495 146110 0 0 $X=369495 $Y=146110
X260 4 MASCO__X12 $T=369880 91710 0 0 $X=369880 $Y=91710
X261 3 MASCO__X12 $T=371495 146110 0 0 $X=371495 $Y=146110
X262 4 MASCO__X12 $T=371880 91710 0 0 $X=371880 $Y=91710
X263 3 MASCO__X12 $T=373495 146110 0 0 $X=373495 $Y=146110
X264 4 MASCO__X12 $T=373880 91710 0 0 $X=373880 $Y=91710
X265 4 MASCO__X12 $T=375880 91710 0 0 $X=375880 $Y=91710
X266 3 MASCO__X12 $T=377495 146110 0 0 $X=377495 $Y=146110
X267 4 MASCO__X12 $T=377880 91710 0 0 $X=377880 $Y=91710
X268 3 MASCO__X12 $T=379495 146110 0 0 $X=379495 $Y=146110
X269 4 MASCO__X12 $T=379880 91710 0 0 $X=379880 $Y=91710
X270 3 MASCO__X12 $T=381495 146110 0 0 $X=381495 $Y=146110
X271 4 MASCO__X12 $T=381880 91710 0 0 $X=381880 $Y=91710
X272 3 MASCO__X12 $T=383495 146110 0 0 $X=383495 $Y=146110
X273 4 MASCO__X12 $T=383880 91710 0 0 $X=383880 $Y=91710
X274 3 MASCO__Y19 $T=233495 143870 0 0 $X=233495 $Y=143870
X275 4 MASCO__Y19 $T=234880 101710 0 0 $X=234880 $Y=101710
X276 3 MASCO__Y19 $T=245495 143870 0 0 $X=245495 $Y=143870
X277 4 MASCO__Y19 $T=246880 101710 0 0 $X=246880 $Y=101710
X278 4 MASCO__Y19 $T=258880 101710 0 0 $X=258880 $Y=101710
X279 3 MASCO__Y19 $T=269495 143870 0 0 $X=269495 $Y=143870
X280 4 MASCO__Y19 $T=270880 101710 0 0 $X=270880 $Y=101710
X281 3 MASCO__Y19 $T=281495 143870 0 0 $X=281495 $Y=143870
X282 4 MASCO__Y19 $T=282880 101710 0 0 $X=282880 $Y=101710
X283 3 MASCO__Y19 $T=293495 143870 0 0 $X=293495 $Y=143870
X284 4 MASCO__Y19 $T=294880 101710 0 0 $X=294880 $Y=101710
X285 3 MASCO__Y19 $T=305495 143870 0 0 $X=305495 $Y=143870
X286 4 MASCO__Y19 $T=306880 101710 0 0 $X=306880 $Y=101710
X287 3 MASCO__Y19 $T=317495 143870 0 0 $X=317495 $Y=143870
X288 4 MASCO__Y19 $T=318880 101710 0 0 $X=318880 $Y=101710
X289 3 MASCO__Y19 $T=329495 143870 0 0 $X=329495 $Y=143870
X290 4 MASCO__Y19 $T=330880 101710 0 0 $X=330880 $Y=101710
X291 3 MASCO__Y19 $T=341495 143870 0 0 $X=341495 $Y=143870
X292 4 MASCO__Y19 $T=347880 101710 0 0 $X=347880 $Y=101710
X293 3 MASCO__Y19 $T=353495 143870 0 0 $X=353495 $Y=143870
X294 4 MASCO__Y19 $T=359880 101710 0 0 $X=359880 $Y=101710
X295 4 MASCO__Y23 $T=233880 91710 0 0 $X=233880 $Y=91710
X296 4 MASCO__Y23 $T=249880 91710 0 0 $X=249880 $Y=91710
X297 3 MASCO__Y23 $T=251495 146110 0 0 $X=251495 $Y=146110
X298 4 MASCO__Y23 $T=265880 91710 0 0 $X=265880 $Y=91710
X299 4 MASCO__Y23 $T=281880 91710 0 0 $X=281880 $Y=91710
X300 4 MASCO__Y23 $T=297880 91710 0 0 $X=297880 $Y=91710
X301 4 MASCO__Y23 $T=313880 91710 0 0 $X=313880 $Y=91710
X302 4 MASCO__Y23 $T=329880 91710 0 0 $X=329880 $Y=91710
X303 4 MASCO__Y24 $T=234880 91710 0 0 $X=234880 $Y=91710
X304 4 MASCO__Y24 $T=250880 91710 0 0 $X=250880 $Y=91710
X305 3 MASCO__Y24 $T=252495 145110 0 0 $X=252495 $Y=145110
X306 4 MASCO__Y24 $T=266880 91710 0 0 $X=266880 $Y=91710
X307 4 MASCO__Y24 $T=282880 91710 0 0 $X=282880 $Y=91710
X308 4 MASCO__Y24 $T=298880 91710 0 0 $X=298880 $Y=91710
X309 4 MASCO__Y24 $T=314880 91710 0 0 $X=314880 $Y=91710
X310 4 MASCO__Y24 $T=330880 91710 0 0 $X=330880 $Y=91710
.ends MASCO__H1

* +++++++++++++++++++++++++++++++++++++++++++++++++++++++++ *
* Sub cell: VIATP_C_CDNS_7246551802831                      *
* +++++++++++++++++++++++++++++++++++++++++++++++++++++++++ *
.subckt VIATP_C_CDNS_7246551802831 1
** N=1 EP=1 FDC=0
.ends VIATP_C_CDNS_7246551802831

* +++++++++++++++++++++++++++++++++++++++++++++++++++++++++ *
* Sub cell: VIATP_C_CDNS_7246551802852                      *
* +++++++++++++++++++++++++++++++++++++++++++++++++++++++++ *
.subckt VIATP_C_CDNS_7246551802852 1
** N=1 EP=1 FDC=0
.ends VIATP_C_CDNS_7246551802852

* +++++++++++++++++++++++++++++++++++++++++++++++++++++++++ *