* +++++++++++++++++++++++++++++++++++++++++++++++++++++++++ *
* CDL Netlist:                                              *
*                                                           *
* Cell Name  : ref_bias                                     *
* Netlisted  : Mon Aug 26 08:30:34 2024                     *
* PVS Version: 23.11-s036 Wed Jan 17 18:11:41 PST 2024      *
* +++++++++++++++++++++++++++++++++++++++++++++++++++++++++ *
*.LDD
*.DEVTMPLT 0 MN(ne3) nem ndiff(D) p1trm(G) ndiff(S) bulk(B)
*.DEVTMPLT 1 MP(pe3) pem pdiff(D) p1trm(G) pdiff(S) nwtrm(B)
*.DEVTMPLT 2 NE3I_6() nemi_6 ndiff(D) p1trm(G) ndiff(S) pwitrm(B) dnwtrm(NW) bulk(SB)
*.DEVTMPLT 3 MOSVC3() mosvcm p1trm(G) nwtrm(NW) bulk(SB)
*.DEVTMPLT 4 D(p_dnw) p_dnw bulk(POS) nwtrm(NEG)
*.DEVTMPLT 5 D(p_ddnw) p_ddnw bulk(POS) dnwtrm(NEG)
*.DEVTMPLT 6 D(p_dipdnwmv) p_dipwmv pwitrm(POS) dnwtrm(NEG)
*.DEVTMPLT 7 D(p_dnw3) p_dnwm bulk(POS) nwtrm(NEG)
*.DEVTMPLT 8 R(rpp1k1_3) rpp1k1_s p1trm(POS) p1trm(NEG) bulk(SUB)
*.DEVTMPLT 9 C(cmm5t) cmim capm(POS) m4trm(NEG)

* +++++++++++++++++++++++++++++++++++++++++++++++++++++++++ *
* Sub cell: NE3I_6                                          *
* +++++++++++++++++++++++++++++++++++++++++++++++++++++++++ *
.subckt NE3I_6 D G S B NW SB
.ends NE3I_6

* +++++++++++++++++++++++++++++++++++++++++++++++++++++++++ *
* Sub cell: MOSVC3                                          *
* +++++++++++++++++++++++++++++++++++++++++++++++++++++++++ *
.subckt MOSVC3 G NW SB
.ends MOSVC3

* +++++++++++++++++++++++++++++++++++++++++++++++++++++++++ *
* Sub cell: VIA2_C_CDNS_724653828770                        *
* +++++++++++++++++++++++++++++++++++++++++++++++++++++++++ *
.subckt VIA2_C_CDNS_724653828770 1
** N=1 EP=1 FDC=0
.ends VIA2_C_CDNS_724653828770

* +++++++++++++++++++++++++++++++++++++++++++++++++++++++++ *
* Sub cell: VIA1_C_CDNS_724653828771                        *
* +++++++++++++++++++++++++++++++++++++++++++++++++++++++++ *
.subckt VIA1_C_CDNS_724653828771 1
** N=1 EP=1 FDC=0
.ends VIA1_C_CDNS_724653828771

* +++++++++++++++++++++++++++++++++++++++++++++++++++++++++ *
* Sub cell: VIA2_C_CDNS_724653828772                        *
* +++++++++++++++++++++++++++++++++++++++++++++++++++++++++ *
.subckt VIA2_C_CDNS_724653828772 1
** N=1 EP=1 FDC=0
.ends VIA2_C_CDNS_724653828772

* +++++++++++++++++++++++++++++++++++++++++++++++++++++++++ *
* Sub cell: VIA1_C_CDNS_724653828774                        *
* +++++++++++++++++++++++++++++++++++++++++++++++++++++++++ *
.subckt VIA1_C_CDNS_724653828774 1
** N=1 EP=1 FDC=0
.ends VIA1_C_CDNS_724653828774

* +++++++++++++++++++++++++++++++++++++++++++++++++++++++++ *
* Sub cell: VIA1_C_CDNS_724653828775                        *
* +++++++++++++++++++++++++++++++++++++++++++++++++++++++++ *
.subckt VIA1_C_CDNS_724653828775 1
** N=1 EP=1 FDC=0
.ends VIA1_C_CDNS_724653828775

* +++++++++++++++++++++++++++++++++++++++++++++++++++++++++ *
* Sub cell: VIA1_C_CDNS_724653828776                        *
* +++++++++++++++++++++++++++++++++++++++++++++++++++++++++ *
.subckt VIA1_C_CDNS_724653828776 1
** N=1 EP=1 FDC=0
.ends VIA1_C_CDNS_724653828776

* +++++++++++++++++++++++++++++++++++++++++++++++++++++++++ *
* Sub cell: VIA1_C_CDNS_724653828777                        *
* +++++++++++++++++++++++++++++++++++++++++++++++++++++++++ *
.subckt VIA1_C_CDNS_724653828777 1
** N=1 EP=1 FDC=0
.ends VIA1_C_CDNS_724653828777

* +++++++++++++++++++++++++++++++++++++++++++++++++++++++++ *
* Sub cell: VIA1_C_CDNS_724653828778                        *
* +++++++++++++++++++++++++++++++++++++++++++++++++++++++++ *
.subckt VIA1_C_CDNS_724653828778 1
** N=1 EP=1 FDC=0
.ends VIA1_C_CDNS_724653828778

* +++++++++++++++++++++++++++++++++++++++++++++++++++++++++ *
* Sub cell: VIA1_C_CDNS_724653828779                        *
* +++++++++++++++++++++++++++++++++++++++++++++++++++++++++ *
.subckt VIA1_C_CDNS_724653828779 1
** N=1 EP=1 FDC=0
.ends VIA1_C_CDNS_724653828779

* +++++++++++++++++++++++++++++++++++++++++++++++++++++++++ *
* Sub cell: VIA1_C_CDNS_7246538287711                       *
* +++++++++++++++++++++++++++++++++++++++++++++++++++++++++ *
.subckt VIA1_C_CDNS_7246538287711 1
** N=1 EP=1 FDC=0
.ends VIA1_C_CDNS_7246538287711

* +++++++++++++++++++++++++++++++++++++++++++++++++++++++++ *
* Sub cell: VIA1_C_CDNS_7246538287712                       *
* +++++++++++++++++++++++++++++++++++++++++++++++++++++++++ *
.subckt VIA1_C_CDNS_7246538287712 1
** N=1 EP=1 FDC=0
.ends VIA1_C_CDNS_7246538287712

* +++++++++++++++++++++++++++++++++++++++++++++++++++++++++ *
* Sub cell: VIA1_C_CDNS_7246538287713                       *
* +++++++++++++++++++++++++++++++++++++++++++++++++++++++++ *
.subckt VIA1_C_CDNS_7246538287713 1
** N=1 EP=1 FDC=0
.ends VIA1_C_CDNS_7246538287713

* +++++++++++++++++++++++++++++++++++++++++++++++++++++++++ *
* Sub cell: VIA2_C_CDNS_7246538287714                       *
* +++++++++++++++++++++++++++++++++++++++++++++++++++++++++ *
.subckt VIA2_C_CDNS_7246538287714 1
** N=1 EP=1 FDC=0
.ends VIA2_C_CDNS_7246538287714

* +++++++++++++++++++++++++++++++++++++++++++++++++++++++++ *
* Sub cell: VIA2_C_CDNS_7246538287715                       *
* +++++++++++++++++++++++++++++++++++++++++++++++++++++++++ *
.subckt VIA2_C_CDNS_7246538287715 1
** N=1 EP=1 FDC=0
.ends VIA2_C_CDNS_7246538287715

* +++++++++++++++++++++++++++++++++++++++++++++++++++++++++ *
* Sub cell: VIA2_C_CDNS_7246538287716                       *
* +++++++++++++++++++++++++++++++++++++++++++++++++++++++++ *
.subckt VIA2_C_CDNS_7246538287716 1
** N=1 EP=1 FDC=0
.ends VIA2_C_CDNS_7246538287716

* +++++++++++++++++++++++++++++++++++++++++++++++++++++++++ *
* Sub cell: VIA1_C_CDNS_7246538287717                       *
* +++++++++++++++++++++++++++++++++++++++++++++++++++++++++ *
.subckt VIA1_C_CDNS_7246538287717 1
** N=1 EP=1 FDC=0
.ends VIA1_C_CDNS_7246538287717

* +++++++++++++++++++++++++++++++++++++++++++++++++++++++++ *
* Sub cell: VIA1_C_CDNS_7246538287718                       *
* +++++++++++++++++++++++++++++++++++++++++++++++++++++++++ *
.subckt VIA1_C_CDNS_7246538287718 1
** N=1 EP=1 FDC=0
.ends VIA1_C_CDNS_7246538287718

* +++++++++++++++++++++++++++++++++++++++++++++++++++++++++ *
* Sub cell: VIA2_C_CDNS_7246538287719                       *
* +++++++++++++++++++++++++++++++++++++++++++++++++++++++++ *
.subckt VIA2_C_CDNS_7246538287719 1
** N=1 EP=1 FDC=0
.ends VIA2_C_CDNS_7246538287719

* +++++++++++++++++++++++++++++++++++++++++++++++++++++++++ *
* Sub cell: VIA1_C_CDNS_7246538287720                       *
* +++++++++++++++++++++++++++++++++++++++++++++++++++++++++ *
.subckt VIA1_C_CDNS_7246538287720 1
** N=1 EP=1 FDC=0
.ends VIA1_C_CDNS_7246538287720

* +++++++++++++++++++++++++++++++++++++++++++++++++++++++++ *
* Sub cell: VIA2_C_CDNS_7246538287721                       *
* +++++++++++++++++++++++++++++++++++++++++++++++++++++++++ *
.subckt VIA2_C_CDNS_7246538287721 1
** N=1 EP=1 FDC=0
.ends VIA2_C_CDNS_7246538287721

* +++++++++++++++++++++++++++++++++++++++++++++++++++++++++ *
* Sub cell: VIA3_C_CDNS_7246538287722                       *
* +++++++++++++++++++++++++++++++++++++++++++++++++++++++++ *
.subckt VIA3_C_CDNS_7246538287722 1
** N=1 EP=1 FDC=0
.ends VIA3_C_CDNS_7246538287722

* +++++++++++++++++++++++++++++++++++++++++++++++++++++++++ *
* Sub cell: VIA1_C_CDNS_7246538287723                       *
* +++++++++++++++++++++++++++++++++++++++++++++++++++++++++ *
.subckt VIA1_C_CDNS_7246538287723 1
** N=1 EP=1 FDC=0
.ends VIA1_C_CDNS_7246538287723

* +++++++++++++++++++++++++++++++++++++++++++++++++++++++++ *
* Sub cell: VIA2_C_CDNS_7246538287724                       *
* +++++++++++++++++++++++++++++++++++++++++++++++++++++++++ *
.subckt VIA2_C_CDNS_7246538287724 1
** N=1 EP=1 FDC=0
.ends VIA2_C_CDNS_7246538287724

* +++++++++++++++++++++++++++++++++++++++++++++++++++++++++ *
* Sub cell: VIA2_C_CDNS_7246538287725                       *
* +++++++++++++++++++++++++++++++++++++++++++++++++++++++++ *
.subckt VIA2_C_CDNS_7246538287725 1
** N=1 EP=1 FDC=0
.ends VIA2_C_CDNS_7246538287725

* +++++++++++++++++++++++++++++++++++++++++++++++++++++++++ *
* Sub cell: VIA2_C_CDNS_7246538287726                       *
* +++++++++++++++++++++++++++++++++++++++++++++++++++++++++ *
.subckt VIA2_C_CDNS_7246538287726 1
** N=1 EP=1 FDC=0
.ends VIA2_C_CDNS_7246538287726

* +++++++++++++++++++++++++++++++++++++++++++++++++++++++++ *
* Sub cell: VIA2_C_CDNS_7246538287734                       *
* +++++++++++++++++++++++++++++++++++++++++++++++++++++++++ *
.subckt VIA2_C_CDNS_7246538287734 1
** N=1 EP=1 FDC=0
.ends VIA2_C_CDNS_7246538287734

* +++++++++++++++++++++++++++++++++++++++++++++++++++++++++ *
* Sub cell: VIA1_C_CDNS_7246538287735                       *
* +++++++++++++++++++++++++++++++++++++++++++++++++++++++++ *
.subckt VIA1_C_CDNS_7246538287735 1
** N=1 EP=1 FDC=0
.ends VIA1_C_CDNS_7246538287735

* +++++++++++++++++++++++++++++++++++++++++++++++++++++++++ *
* Sub cell: VIA1_C_CDNS_7246538287738                       *
* +++++++++++++++++++++++++++++++++++++++++++++++++++++++++ *
.subckt VIA1_C_CDNS_7246538287738 1 2
** N=2 EP=2 FDC=0
.ends VIA1_C_CDNS_7246538287738

* +++++++++++++++++++++++++++++++++++++++++++++++++++++++++ *
* Sub cell: pe3_CDNS_724653828770                           *
* +++++++++++++++++++++++++++++++++++++++++++++++++++++++++ *
.subckt pe3_CDNS_724653828770 1 2 3 4 5
** N=5 EP=5 FDC=11
M0 3 2 1 4 pe3 L=1e-06 W=1e-05 AD=2.7e-12 AS=4.8e-12 PD=1.054e-05 PS=2.096e-05 $X=0 $Y=0 $dt=1
M1 1 2 3 4 pe3 L=1e-06 W=1e-05 AD=2.7e-12 AS=2.7e-12 PD=1.054e-05 PS=1.054e-05 $X=1540 $Y=0 $dt=1
M2 3 2 1 4 pe3 L=1e-06 W=1e-05 AD=2.7e-12 AS=2.7e-12 PD=1.054e-05 PS=1.054e-05 $X=3080 $Y=0 $dt=1
M3 1 2 3 4 pe3 L=1e-06 W=1e-05 AD=2.7e-12 AS=2.7e-12 PD=1.054e-05 PS=1.054e-05 $X=4620 $Y=0 $dt=1
M4 3 2 1 4 pe3 L=1e-06 W=1e-05 AD=2.7e-12 AS=2.7e-12 PD=1.054e-05 PS=1.054e-05 $X=6160 $Y=0 $dt=1
M5 1 2 3 4 pe3 L=1e-06 W=1e-05 AD=2.7e-12 AS=2.7e-12 PD=1.054e-05 PS=1.054e-05 $X=7700 $Y=0 $dt=1
M6 3 2 1 4 pe3 L=1e-06 W=1e-05 AD=2.7e-12 AS=2.7e-12 PD=1.054e-05 PS=1.054e-05 $X=9240 $Y=0 $dt=1
M7 1 2 3 4 pe3 L=1e-06 W=1e-05 AD=2.7e-12 AS=2.7e-12 PD=1.054e-05 PS=1.054e-05 $X=10780 $Y=0 $dt=1
M8 3 2 1 4 pe3 L=1e-06 W=1e-05 AD=2.7e-12 AS=2.7e-12 PD=1.054e-05 PS=1.054e-05 $X=12320 $Y=0 $dt=1
M9 1 2 3 4 pe3 L=1e-06 W=1e-05 AD=4.8e-12 AS=2.7e-12 PD=2.096e-05 PS=1.054e-05 $X=13860 $Y=0 $dt=1
D10 5 4 p_dnw3 AREA=2.15633e-10 PJ=0 perimeter=0 $X=-1510 $Y=-1030 $dt=7
.ends pe3_CDNS_724653828770

* +++++++++++++++++++++++++++++++++++++++++++++++++++++++++ *
* Sub cell: ne3_CDNS_724653828771                           *
* +++++++++++++++++++++++++++++++++++++++++++++++++++++++++ *
.subckt ne3_CDNS_724653828771 1 2 3
** N=3 EP=3 FDC=1
M0 3 2 1 1 ne3 L=5e-06 W=1e-05 AD=4.8e-12 AS=4.8e-12 PD=2.096e-05 PS=2.096e-05 $X=0 $Y=0 $dt=0
.ends ne3_CDNS_724653828771

* +++++++++++++++++++++++++++++++++++++++++++++++++++++++++ *
* Sub cell: pe3_CDNS_724653828772                           *
* +++++++++++++++++++++++++++++++++++++++++++++++++++++++++ *
.subckt pe3_CDNS_724653828772 1 2 3 4 5
** N=5 EP=5 FDC=13
M0 3 2 1 4 pe3 L=1e-06 W=1e-05 AD=2.7e-12 AS=4.8e-12 PD=1.054e-05 PS=2.096e-05 $X=0 $Y=0 $dt=1
M1 1 2 3 4 pe3 L=1e-06 W=1e-05 AD=2.7e-12 AS=2.7e-12 PD=1.054e-05 PS=1.054e-05 $X=1540 $Y=0 $dt=1
M2 3 2 1 4 pe3 L=1e-06 W=1e-05 AD=2.7e-12 AS=2.7e-12 PD=1.054e-05 PS=1.054e-05 $X=3080 $Y=0 $dt=1
M3 1 2 3 4 pe3 L=1e-06 W=1e-05 AD=2.7e-12 AS=2.7e-12 PD=1.054e-05 PS=1.054e-05 $X=4620 $Y=0 $dt=1
M4 3 2 1 4 pe3 L=1e-06 W=1e-05 AD=2.7e-12 AS=2.7e-12 PD=1.054e-05 PS=1.054e-05 $X=6160 $Y=0 $dt=1
M5 1 2 3 4 pe3 L=1e-06 W=1e-05 AD=2.7e-12 AS=2.7e-12 PD=1.054e-05 PS=1.054e-05 $X=7700 $Y=0 $dt=1
M6 3 2 1 4 pe3 L=1e-06 W=1e-05 AD=2.7e-12 AS=2.7e-12 PD=1.054e-05 PS=1.054e-05 $X=9240 $Y=0 $dt=1
M7 1 2 3 4 pe3 L=1e-06 W=1e-05 AD=2.7e-12 AS=2.7e-12 PD=1.054e-05 PS=1.054e-05 $X=10780 $Y=0 $dt=1
M8 3 2 1 4 pe3 L=1e-06 W=1e-05 AD=2.7e-12 AS=2.7e-12 PD=1.054e-05 PS=1.054e-05 $X=12320 $Y=0 $dt=1
M9 1 2 3 4 pe3 L=1e-06 W=1e-05 AD=2.7e-12 AS=2.7e-12 PD=1.054e-05 PS=1.054e-05 $X=13860 $Y=0 $dt=1
M10 3 2 1 4 pe3 L=1e-06 W=1e-05 AD=2.7e-12 AS=2.7e-12 PD=1.054e-05 PS=1.054e-05 $X=15400 $Y=0 $dt=1
M11 1 2 3 4 pe3 L=1e-06 W=1e-05 AD=4.8e-12 AS=2.7e-12 PD=2.096e-05 PS=1.054e-05 $X=16940 $Y=0 $dt=1
D12 5 4 p_dnw3 AREA=2.52778e-10 PJ=0 perimeter=0 $X=-1510 $Y=-1030 $dt=7
.ends pe3_CDNS_724653828772

* +++++++++++++++++++++++++++++++++++++++++++++++++++++++++ *
* Sub cell: pe3_CDNS_724653828773                           *
* +++++++++++++++++++++++++++++++++++++++++++++++++++++++++ *
.subckt pe3_CDNS_724653828773 1 2 3 4
** N=4 EP=4 FDC=3
M0 2 2 1 3 pe3 L=2e-06 W=1e-05 AD=2.7e-12 AS=4.8e-12 PD=1.054e-05 PS=2.096e-05 $X=0 $Y=0 $dt=1
M1 1 2 2 3 pe3 L=2e-06 W=1e-05 AD=4.8e-12 AS=2.7e-12 PD=2.096e-05 PS=1.054e-05 $X=2540 $Y=0 $dt=1
D2 4 3 p_dnw3 AREA=9.11736e-11 PJ=0 perimeter=0 $X=-1510 $Y=-1030 $dt=7
.ends pe3_CDNS_724653828773

* +++++++++++++++++++++++++++++++++++++++++++++++++++++++++ *
* Sub cell: rpp1k1_3_CDNS_724653828774                      *
* +++++++++++++++++++++++++++++++++++++++++++++++++++++++++ *
.subckt rpp1k1_3_CDNS_724653828774 1 2 3
** N=3 EP=3 FDC=1
R0 2 1 L=0.0005141 W=4e-06 $[rpp1k1_3] $SUB=3 $X=-4220 $Y=0 $dt=8
.ends rpp1k1_3_CDNS_724653828774

* +++++++++++++++++++++++++++++++++++++++++++++++++++++++++ *
* Sub cell: ne3_CDNS_724653828775                           *
* +++++++++++++++++++++++++++++++++++++++++++++++++++++++++ *
.subckt ne3_CDNS_724653828775 1 2 3 4
** N=4 EP=4 FDC=8
M0 3 2 1 4 ne3 L=2e-06 W=1e-05 AD=2.7e-12 AS=4.8e-12 PD=1.054e-05 PS=2.096e-05 $X=0 $Y=0 $dt=0
M1 1 2 3 4 ne3 L=2e-06 W=1e-05 AD=2.7e-12 AS=2.7e-12 PD=1.054e-05 PS=1.054e-05 $X=2540 $Y=0 $dt=0
M2 3 2 1 4 ne3 L=2e-06 W=1e-05 AD=2.7e-12 AS=2.7e-12 PD=1.054e-05 PS=1.054e-05 $X=5080 $Y=0 $dt=0
M3 1 2 3 4 ne3 L=2e-06 W=1e-05 AD=2.7e-12 AS=2.7e-12 PD=1.054e-05 PS=1.054e-05 $X=7620 $Y=0 $dt=0
M4 3 2 1 4 ne3 L=2e-06 W=1e-05 AD=2.7e-12 AS=2.7e-12 PD=1.054e-05 PS=1.054e-05 $X=10160 $Y=0 $dt=0
M5 1 2 3 4 ne3 L=2e-06 W=1e-05 AD=2.7e-12 AS=2.7e-12 PD=1.054e-05 PS=1.054e-05 $X=12700 $Y=0 $dt=0
M6 3 2 1 4 ne3 L=2e-06 W=1e-05 AD=2.7e-12 AS=2.7e-12 PD=1.054e-05 PS=1.054e-05 $X=15240 $Y=0 $dt=0
M7 1 2 3 4 ne3 L=2e-06 W=1e-05 AD=4.8e-12 AS=2.7e-12 PD=2.096e-05 PS=1.054e-05 $X=17780 $Y=0 $dt=0
.ends ne3_CDNS_724653828775

* +++++++++++++++++++++++++++++++++++++++++++++++++++++++++ *
* Sub cell: pe3_CDNS_724653828779                           *
* +++++++++++++++++++++++++++++++++++++++++++++++++++++++++ *
.subckt pe3_CDNS_724653828779 1 2 3 4
*.DEVICECLIMB
** N=4 EP=4 FDC=1
M0 3 2 1 1 pe3 L=2e-06 W=1e-05 AD=4.8e-12 AS=4.8e-12 PD=2.096e-05 PS=2.096e-05 $X=0 $Y=0 $dt=1
.ends pe3_CDNS_724653828779

* +++++++++++++++++++++++++++++++++++++++++++++++++++++++++ *
* Sub cell: MASCO__A1                                       *
* +++++++++++++++++++++++++++++++++++++++++++++++++++++++++ *
.subckt MASCO__A1 1 2 3 4 5 6
*.DEVICECLIMB
** N=6 EP=6 FDC=2
X0 1 2 3 6 pe3_CDNS_724653828779 $T=1510 1030 0 0 $X=0 $Y=0
X1 1 5 4 6 pe3_CDNS_724653828779 $T=4750 1030 0 0 $X=3240 $Y=0
.ends MASCO__A1

* +++++++++++++++++++++++++++++++++++++++++++++++++++++++++ *
* Sub cell: pe3_CDNS_7246538287710                          *
* +++++++++++++++++++++++++++++++++++++++++++++++++++++++++ *
.subckt pe3_CDNS_7246538287710 1 2 3 4
*.DEVICECLIMB
** N=4 EP=4 FDC=1
M0 3 2 1 1 pe3 L=1e-05 W=1e-05 AD=4.8e-12 AS=4.8e-12 PD=2.096e-05 PS=2.096e-05 $X=0 $Y=0 $dt=1
.ends pe3_CDNS_7246538287710

* +++++++++++++++++++++++++++++++++++++++++++++++++++++++++ *
* Sub cell: MASCO__A2                                       *
* +++++++++++++++++++++++++++++++++++++++++++++++++++++++++ *
.subckt MASCO__A2 1 2 3 4 5 6
*.DEVICECLIMB
** N=6 EP=6 FDC=2
X0 1 4 2 6 pe3_CDNS_7246538287710 $T=1510 1030 0 0 $X=0 $Y=0
X1 1 5 3 6 pe3_CDNS_7246538287710 $T=12750 1030 0 0 $X=11240 $Y=0
.ends MASCO__A2

* +++++++++++++++++++++++++++++++++++++++++++++++++++++++++ *
* Sub cell: ne3i_6_CDNS_724653828778                        *
* +++++++++++++++++++++++++++++++++++++++++++++++++++++++++ *
.subckt ne3i_6_CDNS_724653828778 1 2 3 4 5
*.DEVICECLIMB
** N=5 EP=5 FDC=1
X0 1 2 3 1 4 5 NE3I_6 w=1e-05 l=2e-06 as=4.8e-12 ad=4.8e-12 ps=2.096e-05 pd=2.096e-05 $X=0 $Y=0 $dt=2
.ends ne3i_6_CDNS_724653828778

* +++++++++++++++++++++++++++++++++++++++++++++++++++++++++ *
* Sub cell: MASCO__A3                                       *
* +++++++++++++++++++++++++++++++++++++++++++++++++++++++++ *
.subckt MASCO__A3 1 2 3 4 5 6 7
*.DEVICECLIMB
** N=7 EP=7 FDC=2
X0 1 4 5 6 7 ne3i_6_CDNS_724653828778 $T=4060 14570 1 0 $X=0 $Y=0
X1 1 2 3 6 7 ne3i_6_CDNS_724653828778 $T=7460 14570 1 0 $X=3400 $Y=0
.ends MASCO__A3

* +++++++++++++++++++++++++++++++++++++++++++++++++++++++++ *
* Sub cell: MASCO__A4                                       *
* +++++++++++++++++++++++++++++++++++++++++++++++++++++++++ *
.subckt MASCO__A4 1 2 3 4 5 6 7
*.DEVICECLIMB
** N=7 EP=7 FDC=2
X0 1 4 5 6 7 ne3i_6_CDNS_724653828778 $T=4060 4450 0 0 $X=0 $Y=0
X1 1 2 3 6 7 ne3i_6_CDNS_724653828778 $T=7460 4450 0 0 $X=3400 $Y=0
.ends MASCO__A4

* +++++++++++++++++++++++++++++++++++++++++++++++++++++++++ *
* Sub cell: MASCO__B5                                       *
* +++++++++++++++++++++++++++++++++++++++++++++++++++++++++ *
.subckt MASCO__B5 1 2 3 4 5 6 7 8 9 10
+ 11
*.DEVICECLIMB
** N=11 EP=11 FDC=4
X0 1 10 6 5 3 2 11 MASCO__A3 $T=0 14680 0 0 $X=0 $Y=14680
X1 1 8 7 9 4 2 11 MASCO__A4 $T=0 0 0 0 $X=0 $Y=0
.ends MASCO__B5

* +++++++++++++++++++++++++++++++++++++++++++++++++++++++++ *
* Sub cell: MASCO__A6                                       *
* +++++++++++++++++++++++++++++++++++++++++++++++++++++++++ *
.subckt MASCO__A6 1 2 3 4 5 6 7 8
*.DEVICECLIMB
** N=8 EP=8 FDC=4
X0 1 2 3 5 4 8 MASCO__A1 $T=0 0 0 0 $X=0 $Y=0
X1 1 4 6 7 4 8 MASCO__A1 $T=6480 0 0 0 $X=6480 $Y=0
.ends MASCO__A6

* +++++++++++++++++++++++++++++++++++++++++++++++++++++++++ *
* Sub cell: ref_bias                                        *
* +++++++++++++++++++++++++++++++++++++++++++++++++++++++++ *
.subckt ref_bias BIAS GNDA OUT1 OUT2 RES_BIAS VDDA VREF
** N=18 EP=7 FDC=187
X0 1 VIA2_C_CDNS_724653828770 $T=13870 9200 0 0 $X=13160 $Y=8800
X1 1 VIA2_C_CDNS_724653828770 $T=13870 25290 0 0 $X=13160 $Y=24890
X2 2 VIA2_C_CDNS_724653828770 $T=64530 11760 0 0 $X=63820 $Y=11360
X3 2 VIA2_C_CDNS_724653828770 $T=64530 27850 0 0 $X=63820 $Y=27450
X4 3 VIA2_C_CDNS_724653828770 $T=66310 10480 0 0 $X=65600 $Y=10080
X5 3 VIA2_C_CDNS_724653828770 $T=66310 26570 0 0 $X=65600 $Y=26170
X6 GNDA VIA1_C_CDNS_724653828771 $T=17710 13040 0 0 $X=17570 $Y=12590
X7 GNDA VIA1_C_CDNS_724653828771 $T=17710 29130 0 0 $X=17570 $Y=28680
X8 GNDA VIA1_C_CDNS_724653828771 $T=20480 29130 0 0 $X=20340 $Y=28680
X9 GNDA VIA1_C_CDNS_724653828771 $T=20480 42300 0 0 $X=20340 $Y=41850
X10 GNDA VIA1_C_CDNS_724653828771 $T=23250 13040 0 0 $X=23110 $Y=12590
X11 GNDA VIA1_C_CDNS_724653828771 $T=23250 29130 0 0 $X=23110 $Y=28680
X12 GNDA VIA1_C_CDNS_724653828771 $T=23950 13040 0 0 $X=23810 $Y=12590
X13 GNDA VIA1_C_CDNS_724653828771 $T=23950 29130 0 0 $X=23810 $Y=28680
X14 1 VIA1_C_CDNS_724653828771 $T=26720 25290 0 0 $X=26580 $Y=24840
X15 3 VIA1_C_CDNS_724653828771 $T=29490 10480 0 0 $X=29350 $Y=10030
X16 1 VIA1_C_CDNS_724653828771 $T=29490 25290 0 0 $X=29350 $Y=24840
X17 GNDA VIA1_C_CDNS_724653828771 $T=30190 13040 0 0 $X=30050 $Y=12590
X18 GNDA VIA1_C_CDNS_724653828771 $T=30190 29130 0 0 $X=30050 $Y=28680
X19 1 VIA1_C_CDNS_724653828771 $T=32960 25290 0 0 $X=32820 $Y=24840
X20 1 VIA1_C_CDNS_724653828771 $T=35730 9200 0 0 $X=35590 $Y=8750
X21 3 VIA1_C_CDNS_724653828771 $T=35730 26570 0 0 $X=35590 $Y=26120
X22 GNDA VIA1_C_CDNS_724653828771 $T=36430 13040 0 0 $X=36290 $Y=12590
X23 GNDA VIA1_C_CDNS_724653828771 $T=36430 29130 0 0 $X=36290 $Y=28680
X24 1 VIA1_C_CDNS_724653828771 $T=39200 25290 0 0 $X=39060 $Y=24840
X25 2 VIA1_C_CDNS_724653828771 $T=41970 11760 0 0 $X=41830 $Y=11310
X26 1 VIA1_C_CDNS_724653828771 $T=41970 25290 0 0 $X=41830 $Y=24840
X27 GNDA VIA1_C_CDNS_724653828771 $T=42670 13040 0 0 $X=42530 $Y=12590
X28 GNDA VIA1_C_CDNS_724653828771 $T=42670 29130 0 0 $X=42530 $Y=28680
X29 1 VIA1_C_CDNS_724653828771 $T=45440 25290 0 0 $X=45300 $Y=24840
X30 1 VIA1_C_CDNS_724653828771 $T=48210 9200 0 0 $X=48070 $Y=8750
X31 3 VIA1_C_CDNS_724653828771 $T=48210 26570 0 0 $X=48070 $Y=26120
X32 GNDA VIA1_C_CDNS_724653828771 $T=48910 13040 0 0 $X=48770 $Y=12590
X33 GNDA VIA1_C_CDNS_724653828771 $T=48910 29130 0 0 $X=48770 $Y=28680
X34 1 VIA1_C_CDNS_724653828771 $T=51680 25290 0 0 $X=51540 $Y=24840
X35 GNDA VIA1_C_CDNS_724653828771 $T=51680 42300 0 0 $X=51540 $Y=41850
X36 3 VIA1_C_CDNS_724653828771 $T=54450 10480 0 0 $X=54310 $Y=10030
X37 GNDA VIA1_C_CDNS_724653828771 $T=54450 29130 0 0 $X=54310 $Y=28680
X38 GNDA VIA1_C_CDNS_724653828771 $T=55150 13040 0 0 $X=55010 $Y=12590
X39 GNDA VIA1_C_CDNS_724653828771 $T=55150 29130 0 0 $X=55010 $Y=28680
X40 GNDA VIA1_C_CDNS_724653828771 $T=57920 29130 0 0 $X=57780 $Y=28680
X41 GNDA VIA1_C_CDNS_724653828771 $T=57920 42300 0 0 $X=57780 $Y=41850
X42 GNDA VIA1_C_CDNS_724653828771 $T=60690 13040 0 0 $X=60550 $Y=12590
X43 GNDA VIA1_C_CDNS_724653828771 $T=60690 29130 0 0 $X=60550 $Y=28680
X44 GNDA VIA2_C_CDNS_724653828772 $T=15900 13040 0 0 $X=14930 $Y=12640
X45 GNDA VIA2_C_CDNS_724653828772 $T=15900 29130 0 0 $X=14930 $Y=28730
X46 GNDA VIA2_C_CDNS_724653828772 $T=15900 42300 0 0 $X=14930 $Y=41900
X47 GNDA VIA2_C_CDNS_724653828772 $T=62500 13040 0 0 $X=61530 $Y=12640
X48 GNDA VIA2_C_CDNS_724653828772 $T=62500 29130 0 0 $X=61530 $Y=28730
X49 GNDA VIA2_C_CDNS_724653828772 $T=62500 42300 0 0 $X=61530 $Y=41900
X50 1 VIA1_C_CDNS_724653828774 $T=26720 41270 0 0 $X=26580 $Y=41080
X51 1 VIA1_C_CDNS_724653828774 $T=32960 41270 0 0 $X=32820 $Y=41080
X52 1 VIA1_C_CDNS_724653828774 $T=39200 41270 0 0 $X=39060 $Y=41080
X53 1 VIA1_C_CDNS_724653828774 $T=45440 41270 0 0 $X=45300 $Y=41080
X54 1 VIA1_C_CDNS_724653828775 $T=17275 53125 0 0 $X=16875 $Y=52415
X55 BIAS VIA1_C_CDNS_724653828775 $T=19815 51345 0 0 $X=19415 $Y=50635
X56 1 VIA1_C_CDNS_724653828775 $T=22355 53125 0 0 $X=21955 $Y=52415
X57 BIAS VIA1_C_CDNS_724653828775 $T=24895 51345 0 0 $X=24495 $Y=50635
X58 1 VIA1_C_CDNS_724653828775 $T=27435 53125 0 0 $X=27035 $Y=52415
X59 BIAS VIA1_C_CDNS_724653828775 $T=29975 51345 0 0 $X=29575 $Y=50635
X60 1 VIA1_C_CDNS_724653828775 $T=32515 53125 0 0 $X=32115 $Y=52415
X61 BIAS VIA1_C_CDNS_724653828775 $T=35055 51345 0 0 $X=34655 $Y=50635
X62 1 VIA1_C_CDNS_724653828775 $T=37595 53125 0 0 $X=37195 $Y=52415
X63 3 VIA1_C_CDNS_724653828775 $T=42210 52905 0 0 $X=41810 $Y=52195
X64 6 VIA1_C_CDNS_724653828775 $T=44750 51125 0 0 $X=44350 $Y=50415
X65 3 VIA1_C_CDNS_724653828775 $T=47290 52905 0 0 $X=46890 $Y=52195
X66 6 VIA1_C_CDNS_724653828775 $T=49830 51125 0 0 $X=49430 $Y=50415
X67 3 VIA1_C_CDNS_724653828775 $T=52370 52905 0 0 $X=51970 $Y=52195
X68 6 VIA1_C_CDNS_724653828775 $T=54910 51125 0 0 $X=54510 $Y=50415
X69 3 VIA1_C_CDNS_724653828775 $T=57450 52905 0 0 $X=57050 $Y=52195
X70 6 VIA1_C_CDNS_724653828775 $T=59990 51125 0 0 $X=59590 $Y=50415
X71 3 VIA1_C_CDNS_724653828775 $T=62530 52905 0 0 $X=62130 $Y=52195
X72 VDDA VIA1_C_CDNS_724653828775 $T=137790 186425 0 0 $X=137390 $Y=185715
X73 8 VIA1_C_CDNS_724653828775 $T=140330 188205 0 0 $X=139930 $Y=187495
X74 VDDA VIA1_C_CDNS_724653828775 $T=142870 186425 0 0 $X=142470 $Y=185715
X75 8 VIA1_C_CDNS_724653828775 $T=147350 188205 0 0 $X=146950 $Y=187495
X76 2 VIA1_C_CDNS_724653828775 $T=149890 186425 0 0 $X=149490 $Y=185715
X77 8 VIA1_C_CDNS_724653828775 $T=152430 188205 0 0 $X=152030 $Y=187495
X78 9 VIA1_C_CDNS_724653828775 $T=162070 148400 0 0 $X=161670 $Y=147690
X79 RES_BIAS VIA1_C_CDNS_724653828775 $T=163610 146620 0 0 $X=163210 $Y=145910
X80 9 VIA1_C_CDNS_724653828775 $T=165150 148400 0 0 $X=164750 $Y=147690
X81 VDDA VIA1_C_CDNS_724653828775 $T=165405 173875 0 0 $X=165005 $Y=173165
X82 VDDA VIA1_C_CDNS_724653828775 $T=165405 193895 0 0 $X=165005 $Y=193185
X83 VDDA VIA1_C_CDNS_724653828775 $T=166675 193895 0 0 $X=166275 $Y=193185
X84 VDDA VIA1_C_CDNS_724653828775 $T=166675 208575 0 0 $X=166275 $Y=207865
X85 RES_BIAS VIA1_C_CDNS_724653828775 $T=166690 146620 0 0 $X=166290 $Y=145910
X86 VDDA VIA1_C_CDNS_724653828775 $T=167715 173875 0 0 $X=167315 $Y=173165
X87 VDDA VIA1_C_CDNS_724653828775 $T=167715 193895 0 0 $X=167315 $Y=193185
X88 9 VIA1_C_CDNS_724653828775 $T=168230 148400 0 0 $X=167830 $Y=147690
X89 VDDA VIA1_C_CDNS_724653828775 $T=168875 173875 0 0 $X=168475 $Y=173165
X90 VDDA VIA1_C_CDNS_724653828775 $T=168875 193895 0 0 $X=168475 $Y=193185
X91 RES_BIAS VIA1_C_CDNS_724653828775 $T=169770 146620 0 0 $X=169370 $Y=145910
X92 11 VIA1_C_CDNS_724653828775 $T=170955 170315 0 0 $X=170555 $Y=169605
X93 12 VIA1_C_CDNS_724653828775 $T=170955 188555 0 0 $X=170555 $Y=187845
X94 9 VIA1_C_CDNS_724653828775 $T=171310 148400 0 0 $X=170910 $Y=147690
X95 VDDA VIA1_C_CDNS_724653828775 $T=172685 173875 0 0 $X=172285 $Y=173165
X96 VDDA VIA1_C_CDNS_724653828775 $T=172685 193895 0 0 $X=172285 $Y=193185
X97 RES_BIAS VIA1_C_CDNS_724653828775 $T=172850 146620 0 0 $X=172450 $Y=145910
X98 12 VIA1_C_CDNS_724653828775 $T=174195 168535 0 0 $X=173795 $Y=167825
X99 9 VIA1_C_CDNS_724653828775 $T=174195 192115 0 0 $X=173795 $Y=191405
X100 9 VIA1_C_CDNS_724653828775 $T=174390 148400 0 0 $X=173990 $Y=147690
X101 VDDA VIA1_C_CDNS_724653828775 $T=175925 173875 0 0 $X=175525 $Y=173165
X102 VDDA VIA1_C_CDNS_724653828775 $T=175925 193895 0 0 $X=175525 $Y=193185
X103 RES_BIAS VIA1_C_CDNS_724653828775 $T=175930 146620 0 0 $X=175530 $Y=145910
X104 9 VIA1_C_CDNS_724653828775 $T=177435 172095 0 0 $X=177035 $Y=171385
X105 11 VIA1_C_CDNS_724653828775 $T=177435 190335 0 0 $X=177035 $Y=189625
X106 9 VIA1_C_CDNS_724653828775 $T=177470 148400 0 0 $X=177070 $Y=147690
X107 RES_BIAS VIA1_C_CDNS_724653828775 $T=179010 146620 0 0 $X=178610 $Y=145910
X108 VDDA VIA1_C_CDNS_724653828775 $T=179165 173875 0 0 $X=178765 $Y=173165
X109 VDDA VIA1_C_CDNS_724653828775 $T=179165 193895 0 0 $X=178765 $Y=193185
X110 9 VIA1_C_CDNS_724653828775 $T=180550 148400 0 0 $X=180150 $Y=147690
X111 11 VIA1_C_CDNS_724653828775 $T=180675 170315 0 0 $X=180275 $Y=169605
X112 12 VIA1_C_CDNS_724653828775 $T=180675 188555 0 0 $X=180275 $Y=187845
X113 VDDA VIA1_C_CDNS_724653828775 $T=182405 173875 0 0 $X=182005 $Y=173165
X114 VDDA VIA1_C_CDNS_724653828775 $T=182405 193895 0 0 $X=182005 $Y=193185
X115 9 VIA1_C_CDNS_724653828775 $T=183915 172095 0 0 $X=183515 $Y=171385
X116 12 VIA1_C_CDNS_724653828775 $T=183915 188555 0 0 $X=183515 $Y=187845
X117 VDDA VIA1_C_CDNS_724653828775 $T=185645 173875 0 0 $X=185245 $Y=173165
X118 VDDA VIA1_C_CDNS_724653828775 $T=185645 193895 0 0 $X=185245 $Y=193185
X119 12 VIA1_C_CDNS_724653828775 $T=187155 168535 0 0 $X=186755 $Y=167825
X120 9 VIA1_C_CDNS_724653828775 $T=187155 192115 0 0 $X=186755 $Y=191405
X121 VDDA VIA1_C_CDNS_724653828775 $T=188885 173875 0 0 $X=188485 $Y=173165
X122 VDDA VIA1_C_CDNS_724653828775 $T=188885 193895 0 0 $X=188485 $Y=193185
X123 11 VIA1_C_CDNS_724653828775 $T=189010 148400 0 0 $X=188610 $Y=147690
X124 9 VIA1_C_CDNS_724653828775 $T=190395 172095 0 0 $X=189995 $Y=171385
X125 11 VIA1_C_CDNS_724653828775 $T=190395 190335 0 0 $X=189995 $Y=189625
X126 OUT1 VIA1_C_CDNS_724653828775 $T=190550 146620 0 0 $X=190150 $Y=145910
X127 11 VIA1_C_CDNS_724653828775 $T=192090 148400 0 0 $X=191690 $Y=147690
X128 VDDA VIA1_C_CDNS_724653828775 $T=192125 173875 0 0 $X=191725 $Y=173165
X129 VDDA VIA1_C_CDNS_724653828775 $T=192125 193895 0 0 $X=191725 $Y=193185
X130 OUT1 VIA1_C_CDNS_724653828775 $T=193630 146620 0 0 $X=193230 $Y=145910
X131 11 VIA1_C_CDNS_724653828775 $T=193635 170315 0 0 $X=193235 $Y=169605
X132 9 VIA1_C_CDNS_724653828775 $T=193635 192115 0 0 $X=193235 $Y=191405
X133 11 VIA1_C_CDNS_724653828775 $T=195170 148400 0 0 $X=194770 $Y=147690
X134 VDDA VIA1_C_CDNS_724653828775 $T=195365 173875 0 0 $X=194965 $Y=173165
X135 VDDA VIA1_C_CDNS_724653828775 $T=195365 193895 0 0 $X=194965 $Y=193185
X136 OUT1 VIA1_C_CDNS_724653828775 $T=196710 146620 0 0 $X=196310 $Y=145910
X137 9 VIA1_C_CDNS_724653828775 $T=196875 172095 0 0 $X=196475 $Y=171385
X138 12 VIA1_C_CDNS_724653828775 $T=196875 188555 0 0 $X=196475 $Y=187845
X139 11 VIA1_C_CDNS_724653828775 $T=198250 148400 0 0 $X=197850 $Y=147690
X140 VDDA VIA1_C_CDNS_724653828775 $T=198605 173875 0 0 $X=198205 $Y=173165
X141 VDDA VIA1_C_CDNS_724653828775 $T=198605 193895 0 0 $X=198205 $Y=193185
X142 OUT1 VIA1_C_CDNS_724653828775 $T=199790 146620 0 0 $X=199390 $Y=145910
X143 12 VIA1_C_CDNS_724653828775 $T=200115 168535 0 0 $X=199715 $Y=167825
X144 9 VIA1_C_CDNS_724653828775 $T=200115 192115 0 0 $X=199715 $Y=191405
X145 11 VIA1_C_CDNS_724653828775 $T=201330 148400 0 0 $X=200930 $Y=147690
X146 VDDA VIA1_C_CDNS_724653828775 $T=201845 173875 0 0 $X=201445 $Y=173165
X147 VDDA VIA1_C_CDNS_724653828775 $T=201845 193895 0 0 $X=201445 $Y=193185
X148 OUT1 VIA1_C_CDNS_724653828775 $T=202870 146620 0 0 $X=202470 $Y=145910
X149 9 VIA1_C_CDNS_724653828775 $T=203355 172095 0 0 $X=202955 $Y=171385
X150 11 VIA1_C_CDNS_724653828775 $T=203355 190335 0 0 $X=202955 $Y=189625
X151 11 VIA1_C_CDNS_724653828775 $T=204410 148400 0 0 $X=204010 $Y=147690
X152 VDDA VIA1_C_CDNS_724653828775 $T=205085 173875 0 0 $X=204685 $Y=173165
X153 VDDA VIA1_C_CDNS_724653828775 $T=205085 193895 0 0 $X=204685 $Y=193185
X154 11 VIA1_C_CDNS_724653828775 $T=206595 170315 0 0 $X=206195 $Y=169605
X155 9 VIA1_C_CDNS_724653828775 $T=206595 192115 0 0 $X=206195 $Y=191405
X156 VDDA VIA1_C_CDNS_724653828775 $T=208325 173875 0 0 $X=207925 $Y=173165
X157 VDDA VIA1_C_CDNS_724653828775 $T=208325 193895 0 0 $X=207925 $Y=193185
X158 11 VIA1_C_CDNS_724653828775 $T=209835 170315 0 0 $X=209435 $Y=169605
X159 12 VIA1_C_CDNS_724653828775 $T=209835 188555 0 0 $X=209435 $Y=187845
X160 VDDA VIA1_C_CDNS_724653828775 $T=211565 173875 0 0 $X=211165 $Y=173165
X161 VDDA VIA1_C_CDNS_724653828775 $T=211565 193895 0 0 $X=211165 $Y=193185
X162 12 VIA1_C_CDNS_724653828775 $T=212920 148400 0 0 $X=212520 $Y=147690
X163 12 VIA1_C_CDNS_724653828775 $T=213075 168535 0 0 $X=212675 $Y=167825
X164 9 VIA1_C_CDNS_724653828775 $T=213075 192115 0 0 $X=212675 $Y=191405